<NUMBER OF ZONES> 14
<NUMBER OF NODES> 401
<FIRST THRU NODE> 15
<NUMBER OF LINKS> 1182
<ORIGINAL HEADER>~	Init node	Term node	Capacity	Length	Free Flow Time	B	Power	Speed limit	Toll	Type	;
<END OF METADATA>

~	init_node	term_node	capacity	length	free_flow_time	b	power	speed	toll	link_type	;
	15	16	0.0	124.311074423058	20.718512403843	0.15	4.0	30.000000	0.0	1	;
	15	17	0.0	135.579770700951	22.596628450158	0.15	4.0	25.000000	0.0	1	;
	15	174	0.0	73.540973213366	12.256828868894	0.15	4.0	30.000000	0.0	1	;
	16	171	0.0	121.325000000000	20.220833333333	0.15	4.0	25.000000	0.0	1	;
	16	172	0.0	90.088000000000	15.014666666667	0.15	4.0	30.000000	0.0	1	;
	16	15	0.0	124.311074423058	20.718512403843	0.15	4.0	30.000000	0.0	1	;
	16	50	0.0	129.044740021962	21.507456670327	0.15	4.0	25.000000	0.0	1	;
	17	41	0.0	137.700582069338	22.950097011556	0.15	4.0	25.000000	0.0	1	;
	17	32	0.0	124.913481993373	20.818913665562	0.15	4.0	30.000000	0.0	1	;
	17	15	0.0	135.579770700951	22.596628450158	0.15	4.0	25.000000	0.0	1	;
	17	50	0.0	126.710176251426	21.118362708571	0.15	4.0	30.000000	0.0	1	;
	18	19	0.0	61.453942389395	10.242323731566	0.15	4.0	20.000000	0.0	1	;
	18	20	0.0	103.015028067612	17.169171344602	0.15	4.0	20.000000	0.0	1	;
	18	21	0.0	108.286919084246	18.047819847374	0.15	4.0	20.000000	0.0	1	;
	19	253	0.0	44.747000000000	7.457833333333	0.15	4.0	20.000000	0.0	1	;
	19	18	0.0	61.453942389395	10.242323731566	0.15	4.0	20.000000	0.0	1	;
	20	18	0.0	52.604121252046	8.767353542008	0.15	4.0	20.000000	0.0	1	;
	20	207	0.0	64.117000000000	10.686166666667	0.15	4.0	20.000000	0.0	1	;
	21	18	0.0	108.286919084246	18.047819847374	0.15	4.0	20.000000	0.0	1	;
	21	22	0.0	96.627000000000	16.104500000000	0.15	4.0	25.000000	0.0	1	;
	21	23	0.0	82.088000000000	13.681333333333	0.15	4.0	25.000000	0.0	1	;
	22	24	0.0	42.611000000000	7.101833333333	0.15	4.0	25.000000	0.0	1	;
	22	21	0.0	96.627000000000	16.104500000000	0.15	4.0	25.000000	0.0	1	;
	22	25	0.0	46.959000000000	7.826500000000	0.15	4.0	20.000000	0.0	1	;
	22	2	0.0	25.263000000000	4.210500000000	0.15	4.0	0.000000	0.0	1	;
	23	144	0.0	33.148998114096	5.524833019016	0.15	4.0	25.000000	0.0	1	;
	23	21	0.0	82.088000000000	13.681333333333	0.15	4.0	25.000000	0.0	1	;
	23	143	0.0	47.148000000000	7.858000000000	0.15	4.0	25.000000	0.0	1	;
	23	374	0.0	53.409865561946	8.901644260324	0.15	4.0	25.000000	0.0	1	;
	24	22	0.0	42.611000000000	7.101833333333	0.15	4.0	25.000000	0.0	1	;
	24	25	0.0	90.974000000000	15.162333333333	0.15	4.0	0.000000	0.0	1	;
	25	376	0.0	33.461000000000	5.576833333333	0.15	4.0	20.000000	0.0	1	;
	25	22	0.0	46.959000000000	7.826500000000	0.15	4.0	20.000000	0.0	1	;
	25	24	0.0	90.974000000000	15.162333333333	0.15	4.0	0.000000	0.0	1	;
	2	367	0.0	22.906000000000	3.817666666667	0.15	4.0	0.000000	0.0	1	;
	2	22	0.0	25.263000000000	4.210500000000	0.15	4.0	0.000000	0.0	1	;
	26	27	0.0	131.428127211108	21.904687868518	0.15	4.0	25.000000	0.0	1	;
	26	28	0.0	66.173518540784	11.028919756797	0.15	4.0	25.000000	0.0	1	;
	26	29	0.0	91.351882807986	15.225313801331	0.15	4.0	25.000000	0.0	1	;
	26	357	0.0	60.273131693738	10.045521948956	0.15	4.0	25.000000	0.0	1	;
	26	31	0.0	169.933105836773	28.322184306129	0.15	4.0	0.000000	0.0	1	;
	27	30	0.0	125.272983820837	20.878830636806	0.15	4.0	20.000000	0.0	1	;
	27	26	0.0	131.428127211108	21.904687868518	0.15	4.0	25.000000	0.0	1	;
	27	31	0.0	31.726958407019	5.287826401170	0.15	4.0	25.000000	0.0	1	;
	28	135	0.0	68.862000000000	11.477000000000	0.15	4.0	25.000000	0.0	1	;
	28	351	0.0	32.912895737074	5.485482622846	0.15	4.0	0.000000	0.0	1	;
	28	26	0.0	66.173518540784	11.028919756797	0.15	4.0	25.000000	0.0	1	;
	29	141	0.0	40.903000000000	6.817166666667	0.15	4.0	25.000000	0.0	1	;
	29	26	0.0	91.351882807986	15.225313801331	0.15	4.0	25.000000	0.0	1	;
	30	27	0.0	125.272983820837	20.878830636806	0.15	4.0	20.000000	0.0	1	;
	30	371	0.0	54.188368599200	9.031394766533	0.15	4.0	25.000000	0.0	1	;
	30	142	0.0	52.351185419138	8.725197569856	0.15	4.0	25.000000	0.0	1	;
	30	373	0.0	64.933358185105	10.822226364184	0.15	4.0	0.000000	0.0	1	;
	31	194	0.0	103.722921046841	17.287153507807	0.15	4.0	25.000000	0.0	1	;
	31	27	0.0	31.726958407019	5.287826401170	0.15	4.0	25.000000	0.0	1	;
	31	344	0.0	87.245796011027	14.540966001838	0.15	4.0	0.000000	0.0	1	;
	31	26	0.0	169.933105836773	28.322184306129	0.15	4.0	0.000000	0.0	1	;
	32	33	0.0	26.125000000000	4.354166666667	0.15	4.0	25.000000	0.0	1	;
	32	34	0.0	64.847000000000	10.807833333333	0.15	4.0	30.000000	0.0	1	;
	32	17	0.0	124.913481993373	20.818913665562	0.15	4.0	30.000000	0.0	1	;
	32	40	0.0	124.153000000000	20.692166666667	0.15	4.0	25.000000	0.0	1	;
	33	173	0.0	96.294000000000	16.049000000000	0.15	4.0	25.000000	0.0	1	;
	33	305	0.0	38.633000000000	6.438833333333	0.15	4.0	0.000000	0.0	1	;
	33	32	0.0	26.125000000000	4.354166666667	0.15	4.0	25.000000	0.0	1	;
	34	125	0.0	61.272000000000	10.212000000000	0.15	4.0	30.000000	0.0	1	;
	34	4	0.0	42.472000000000	7.078666666667	0.15	4.0	0.000000	0.0	1	;
	34	32	0.0	64.847000000000	10.807833333333	0.15	4.0	30.000000	0.0	1	;
	35	36	0.0	62.793000000000	10.465500000000	0.15	4.0	25.000000	0.0	1	;
	35	37	0.0	58.384000000000	9.730666666667	0.15	4.0	25.000000	0.0	1	;
	35	42	0.0	122.762000000000	20.460333333333	0.15	4.0	25.000000	0.0	1	;
	35	125	0.0	123.076000000000	20.512666666667	0.15	4.0	25.000000	0.0	1	;
	36	56	0.0	115.242000000000	19.207000000000	0.15	4.0	0.000000	0.0	1	;
	36	54	0.0	62.021000000000	10.336833333333	0.15	4.0	25.000000	0.0	1	;
	36	35	0.0	62.793000000000	10.465500000000	0.15	4.0	25.000000	0.0	1	;
	37	40	0.0	67.516000000000	11.252666666667	0.15	4.0	25.000000	0.0	1	;
	37	400	0.0	34.914000000000	5.819000000000	0.15	4.0	0.000000	0.0	1	;
	37	35	0.0	58.384000000000	9.730666666667	0.15	4.0	25.000000	0.0	1	;
	38	39	0.0	38.137000000000	6.356166666667	0.15	4.0	25.000000	0.0	1	;
	38	40	0.0	126.373000000000	21.062166666667	0.15	4.0	25.000000	0.0	1	;
	38	116	0.0	126.006000000000	21.001000000000	0.15	4.0	25.000000	0.0	1	;
	38	120	0.0	39.786000000000	6.631000000000	0.15	4.0	25.000000	0.0	1	;
	39	54	0.0	88.261000000000	14.710166666667	0.15	4.0	25.000000	0.0	1	;
	39	38	0.0	38.137000000000	6.356166666667	0.15	4.0	25.000000	0.0	1	;
	40	32	0.0	124.153000000000	20.692166666667	0.15	4.0	25.000000	0.0	1	;
	40	41	0.0	125.307176108979	20.884529351496	0.15	4.0	25.000000	0.0	1	;
	40	37	0.0	67.516000000000	11.252666666667	0.15	4.0	25.000000	0.0	1	;
	40	38	0.0	126.373000000000	21.062166666667	0.15	4.0	25.000000	0.0	1	;
	41	58	0.0	131.612326752001	21.935387792000	0.15	4.0	25.000000	0.0	1	;
	41	49	0.0	123.112729813387	20.518788302231	0.15	4.0	25.000000	0.0	1	;
	41	17	0.0	137.700582069338	22.950097011556	0.15	4.0	25.000000	0.0	1	;
	41	40	0.0	125.307176108979	20.884529351496	0.15	4.0	25.000000	0.0	1	;
	42	35	0.0	122.762000000000	20.460333333333	0.15	4.0	25.000000	0.0	1	;
	42	3	0.0	74.781000000000	12.463500000000	0.15	4.0	25.000000	0.0	1	;
	42	52	0.0	123.268000000000	20.544666666667	0.15	4.0	25.000000	0.0	1	;
	42	368	0.0	51.499000000000	8.583166666667	0.15	4.0	25.000000	0.0	1	;
	3	46	0.0	50.595000000000	8.432500000000	0.15	4.0	25.000000	0.0	1	;
	3	370	0.0	54.998000000000	9.166333333333	0.15	4.0	0.000000	0.0	1	;
	3	42	0.0	74.781000000000	12.463500000000	0.15	4.0	25.000000	0.0	1	;
	43	44	0.0	32.823000000000	5.470500000000	0.15	4.0	25.000000	0.0	1	;
	43	45	0.0	35.271000000000	5.878500000000	0.15	4.0	25.000000	0.0	1	;
	43	155	0.0	46.858310597357	7.809718432893	0.15	4.0	25.000000	0.0	1	;
	43	216	0.0	70.420495054982	11.736749175830	0.15	4.0	25.000000	0.0	1	;
	44	368	0.0	41.213000000000	6.868833333333	0.15	4.0	25.000000	0.0	1	;
	44	369	0.0	79.914000000000	13.319000000000	0.15	4.0	0.000000	0.0	1	;
	44	43	0.0	32.823000000000	5.470500000000	0.15	4.0	25.000000	0.0	1	;
	45	380	0.0	30.119000000000	5.019833333333	0.15	4.0	25.000000	0.0	1	;
	45	396	0.0	21.802000000000	3.633666666667	0.15	4.0	0.000000	0.0	1	;
	45	43	0.0	35.271000000000	5.878500000000	0.15	4.0	25.000000	0.0	1	;
	46	47	0.0	60.770000000000	10.128333333333	0.15	4.0	30.000000	0.0	1	;
	46	48	0.0	38.261684521565	6.376947420261	0.15	4.0	25.000000	0.0	1	;
	46	3	0.0	50.595000000000	8.432500000000	0.15	4.0	25.000000	0.0	1	;
	46	126	0.0	63.863008150727	10.643834691788	0.15	4.0	30.000000	0.0	1	;
	47	294	0.0	121.296000000000	20.216000000000	0.15	4.0	0.000000	0.0	1	;
	47	215	0.0	64.206000000000	10.701000000000	0.15	4.0	30.000000	0.0	1	;
	47	46	0.0	60.770000000000	10.128333333333	0.15	4.0	30.000000	0.0	1	;
	48	359	0.0	60.708146238979	10.118024373163	0.15	4.0	25.000000	0.0	1	;
	48	360	0.0	104.466340736147	17.411056789358	0.15	4.0	0.000000	0.0	1	;
	48	361	0.0	96.244750742123	16.040791790354	0.15	4.0	0.000000	0.0	1	;
	48	126	0.0	64.300079604633	10.716679934105	0.15	4.0	0.000000	0.0	1	;
	48	46	0.0	38.261684521565	6.376947420261	0.15	4.0	25.000000	0.0	1	;
	49	50	0.0	120.972405375771	20.162067562628	0.15	4.0	25.000000	0.0	1	;
	49	51	0.0	125.000000000000	20.833333333333	0.15	4.0	25.000000	0.0	1	;
	49	41	0.0	123.112729813387	20.518788302231	0.15	4.0	25.000000	0.0	1	;
	49	57	0.0	126.696564458365	21.116094076394	0.15	4.0	25.000000	0.0	1	;
	50	17	0.0	126.710176251426	21.118362708571	0.15	4.0	30.000000	0.0	1	;
	50	16	0.0	129.044740021962	21.507456670327	0.15	4.0	25.000000	0.0	1	;
	50	49	0.0	120.972405375771	20.162067562628	0.15	4.0	25.000000	0.0	1	;
	50	5	0.0	87.443385941442	14.573897656907	0.15	4.0	30.000000	0.0	1	;
	51	123	0.0	60.705000000000	10.117500000000	0.15	4.0	25.000000	0.0	1	;
	51	124	0.0	71.061000000000	11.843500000000	0.15	4.0	25.000000	0.0	1	;
	51	49	0.0	125.000000000000	20.833333333333	0.15	4.0	25.000000	0.0	1	;
	51	325	0.0	47.184000000000	7.864000000000	0.15	4.0	25.000000	0.0	1	;
	52	53	0.0	127.021000000000	21.170166666667	0.15	4.0	25.000000	0.0	1	;
	52	42	0.0	123.268000000000	20.544666666667	0.15	4.0	25.000000	0.0	1	;
	52	56	0.0	59.934000000000	9.989000000000	0.15	4.0	25.000000	0.0	1	;
	52	189	0.0	46.632000000000	7.772000000000	0.15	4.0	25.000000	0.0	1	;
	53	190	0.0	42.882811798632	7.147135299772	0.15	4.0	25.000000	0.0	1	;
	53	151	0.0	126.305000000000	21.050833333333	0.15	4.0	25.000000	0.0	1	;
	53	52	0.0	127.021000000000	21.170166666667	0.15	4.0	25.000000	0.0	1	;
	53	380	0.0	56.477000000000	9.412833333333	0.15	4.0	25.000000	0.0	1	;
	54	55	0.0	124.297000000000	20.716166666667	0.15	4.0	25.000000	0.0	1	;
	54	56	0.0	63.050000000000	10.508333333333	0.15	4.0	25.000000	0.0	1	;
	54	36	0.0	62.021000000000	10.336833333333	0.15	4.0	25.000000	0.0	1	;
	54	39	0.0	88.261000000000	14.710166666667	0.15	4.0	25.000000	0.0	1	;
	55	184	0.0	125.003000000000	20.833833333333	0.15	4.0	25.000000	0.0	1	;
	55	70	0.0	128.119000000000	21.353166666667	0.15	4.0	25.000000	0.0	1	;
	55	185	0.0	87.411000000000	14.568500000000	0.15	4.0	25.000000	0.0	1	;
	55	54	0.0	124.297000000000	20.716166666667	0.15	4.0	25.000000	0.0	1	;
	56	52	0.0	59.934000000000	9.989000000000	0.15	4.0	25.000000	0.0	1	;
	56	36	0.0	115.242000000000	19.207000000000	0.15	4.0	0.000000	0.0	1	;
	56	54	0.0	63.050000000000	10.508333333333	0.15	4.0	25.000000	0.0	1	;
	57	58	0.0	133.159985797990	22.193330966332	0.15	4.0	25.000000	0.0	1	;
	57	49	0.0	126.696564458365	21.116094076394	0.15	4.0	25.000000	0.0	1	;
	57	119	0.0	136.029277587482	22.671546264580	0.15	4.0	0.000000	0.0	1	;
	57	133	0.0	59.902030957553	9.983671826259	0.15	4.0	25.000000	0.0	1	;
	58	120	0.0	79.504000000000	13.250666666667	0.15	4.0	25.000000	0.0	1	;
	58	41	0.0	131.612326752001	21.935387792000	0.15	4.0	25.000000	0.0	1	;
	58	57	0.0	133.159985797990	22.193330966332	0.15	4.0	25.000000	0.0	1	;
	59	60	0.0	121.336000000000	20.222666666667	0.15	4.0	25.000000	0.0	1	;
	59	11	0.0	123.621000000000	20.603500000000	0.15	4.0	25.000000	0.0	1	;
	59	61	0.0	122.680000000000	20.446666666667	0.15	4.0	25.000000	0.0	1	;
	59	378	0.0	125.625000000000	20.937500000000	0.15	4.0	25.000000	0.0	1	;
	60	62	0.0	67.213000000000	11.202166666667	0.15	4.0	25.000000	0.0	1	;
	60	59	0.0	121.336000000000	20.222666666667	0.15	4.0	25.000000	0.0	1	;
	60	63	0.0	128.232000000000	21.372000000000	0.15	4.0	25.000000	0.0	1	;
	60	113	0.0	124.828000000000	20.804666666667	0.15	4.0	25.000000	0.0	1	;
	11	116	0.0	126.357000000000	21.059500000000	0.15	4.0	25.000000	0.0	1	;
	11	70	0.0	124.695000000000	20.782500000000	0.15	4.0	25.000000	0.0	1	;
	11	59	0.0	123.621000000000	20.603500000000	0.15	4.0	25.000000	0.0	1	;
	11	113	0.0	119.260000000000	19.876666666667	0.15	4.0	25.000000	0.0	1	;
	61	12	0.0	126.594000000000	21.099000000000	0.15	4.0	25.000000	0.0	1	;
	61	59	0.0	122.680000000000	20.446666666667	0.15	4.0	25.000000	0.0	1	;
	61	13	0.0	125.899000000000	20.983166666667	0.15	4.0	25.000000	0.0	1	;
	61	70	0.0	122.466000000000	20.411000000000	0.15	4.0	25.000000	0.0	1	;
	62	121	0.0	65.510010522969	10.918335087162	0.15	4.0	25.000000	0.0	1	;
	62	60	0.0	67.213000000000	11.202166666667	0.15	4.0	25.000000	0.0	1	;
	62	118	0.0	125.387000000000	20.897833333333	0.15	4.0	0.000000	0.0	1	;
	62	307	0.0	123.977000000000	20.662833333333	0.15	4.0	0.000000	0.0	1	;
	63	378	0.0	121.959000000000	20.326500000000	0.15	4.0	10.000000	0.0	1	;
	63	307	0.0	67.691000000000	11.281833333333	0.15	4.0	10.000000	0.0	1	;
	63	60	0.0	128.232000000000	21.372000000000	0.15	4.0	25.000000	0.0	1	;
	13	64	0.0	123.131000000000	20.521833333333	0.15	4.0	25.000000	0.0	1	;
	13	65	0.0	123.712000000000	20.618666666667	0.15	4.0	25.000000	0.0	1	;
	13	61	0.0	125.899000000000	20.983166666667	0.15	4.0	25.000000	0.0	1	;
	13	228	0.0	125.320000000000	20.886666666667	0.15	4.0	25.000000	0.0	1	;
	64	153	0.0	95.834576737612	15.972429456269	0.15	4.0	25.000000	0.0	1	;
	64	76	0.0	126.828000000000	21.138000000000	0.15	4.0	25.000000	0.0	1	;
	64	13	0.0	123.131000000000	20.521833333333	0.15	4.0	25.000000	0.0	1	;
	64	70	0.0	125.064000000000	20.844000000000	0.15	4.0	25.000000	0.0	1	;
	65	66	0.0	34.488000000000	5.748000000000	0.15	4.0	25.000000	0.0	1	;
	65	13	0.0	123.712000000000	20.618666666667	0.15	4.0	25.000000	0.0	1	;
	65	67	0.0	128.484000000000	21.414000000000	0.15	4.0	25.000000	0.0	1	;
	65	76	0.0	121.335000000000	20.222500000000	0.15	4.0	25.000000	0.0	1	;
	12	379	0.0	164.998302345092	27.499717057515	0.15	4.0	25.000000	0.0	1	;
	12	228	0.0	124.651000000000	20.775166666667	0.15	4.0	10.000000	0.0	1	;
	12	378	0.0	123.506000000000	20.584333333333	0.15	4.0	10.000000	0.0	1	;
	12	61	0.0	126.594000000000	21.099000000000	0.15	4.0	25.000000	0.0	1	;
	66	347	0.0	95.211000000000	15.868500000000	0.15	4.0	25.000000	0.0	1	;
	66	346	0.0	62.614000000000	10.435666666667	0.15	4.0	0.000000	0.0	1	;
	66	65	0.0	34.488000000000	5.748000000000	0.15	4.0	25.000000	0.0	1	;
	67	68	0.0	41.040000000000	6.840000000000	0.15	4.0	25.000000	0.0	1	;
	67	65	0.0	128.484000000000	21.414000000000	0.15	4.0	25.000000	0.0	1	;
	67	69	0.0	123.889000000000	20.648166666667	0.15	4.0	25.000000	0.0	1	;
	67	348	0.0	38.989000000000	6.498166666667	0.15	4.0	25.000000	0.0	1	;
	68	67	0.0	41.040000000000	6.840000000000	0.15	4.0	25.000000	0.0	1	;
	69	260	0.0	102.928000000000	17.154666666667	0.15	4.0	25.000000	0.0	1	;
	69	67	0.0	123.889000000000	20.648166666667	0.15	4.0	25.000000	0.0	1	;
	69	77	0.0	62.702000000000	10.450333333333	0.15	4.0	25.000000	0.0	1	;
	70	64	0.0	125.064000000000	20.844000000000	0.15	4.0	25.000000	0.0	1	;
	70	61	0.0	122.466000000000	20.411000000000	0.15	4.0	25.000000	0.0	1	;
	70	55	0.0	128.119000000000	21.353166666667	0.15	4.0	25.000000	0.0	1	;
	70	11	0.0	124.695000000000	20.782500000000	0.15	4.0	25.000000	0.0	1	;
	71	72	0.0	147.639822680366	24.606637113394	0.15	4.0	30.000000	0.0	1	;
	71	274	0.0	109.961411739705	18.326901956617	0.15	4.0	30.000000	0.0	1	;
	71	73	0.0	126.710062300319	21.118343716720	0.15	4.0	25.000000	0.0	1	;
	71	10	0.0	124.814172576677	20.802362096113	0.15	4.0	25.000000	0.0	1	;
	71	250	0.0	148.385409424057	24.730901570676	0.15	4.0	30.000000	0.0	1	;
	71	275	0.0	73.538676428306	12.256446071384	0.15	4.0	30.000000	0.0	1	;
	72	162	0.0	135.753465851869	22.625577641978	0.15	4.0	30.000000	0.0	1	;
	72	163	0.0	126.326598187043	21.054433031174	0.15	4.0	25.000000	0.0	1	;
	72	275	0.0	73.045570709113	12.174261784852	0.15	4.0	30.000000	0.0	1	;
	72	221	0.0	80.993851428236	13.498975238039	0.15	4.0	25.000000	0.0	1	;
	72	71	0.0	147.639822680366	24.606637113394	0.15	4.0	30.000000	0.0	1	;
	73	74	0.0	47.252302106632	7.875383684439	0.15	4.0	25.000000	0.0	1	;
	73	75	0.0	62.195534966565	10.365922494427	0.15	4.0	25.000000	0.0	1	;
	73	327	0.0	28.673184485524	4.778864080921	0.15	4.0	20.000000	0.0	1	;
	73	71	0.0	126.710062300319	21.118343716720	0.15	4.0	25.000000	0.0	1	;
	74	73	0.0	47.252302106632	7.875383684439	0.15	4.0	25.000000	0.0	1	;
	74	218	0.0	81.712671479557	13.618778579926	0.15	4.0	25.000000	0.0	1	;
	75	232	0.0	67.590000000000	11.265000000000	0.15	4.0	25.000000	0.0	1	;
	75	73	0.0	62.195534966565	10.365922494427	0.15	4.0	25.000000	0.0	1	;
	76	65	0.0	121.335000000000	20.222500000000	0.15	4.0	25.000000	0.0	1	;
	76	77	0.0	63.976000000000	10.662666666667	0.15	4.0	25.000000	0.0	1	;
	76	64	0.0	126.828000000000	21.138000000000	0.15	4.0	25.000000	0.0	1	;
	76	385	0.0	28.829853232437	4.804975538740	0.15	4.0	25.000000	0.0	1	;
	77	335	0.0	26.808248982678	4.468041497113	0.15	4.0	0.000000	0.0	1	;
	77	69	0.0	62.702000000000	10.450333333333	0.15	4.0	25.000000	0.0	1	;
	77	76	0.0	63.976000000000	10.662666666667	0.15	4.0	25.000000	0.0	1	;
	78	79	0.0	72.597000000000	12.099500000000	0.15	4.0	25.000000	0.0	1	;
	78	80	0.0	107.082392760492	17.847065460082	0.15	4.0	25.000000	0.0	1	;
	78	81	0.0	41.010000000000	6.835000000000	0.15	4.0	25.000000	0.0	1	;
	78	82	0.0	124.729380431136	20.788230071856	0.15	4.0	25.000000	0.0	1	;
	79	231	0.0	33.652000000000	5.608666666667	0.15	4.0	25.000000	0.0	1	;
	79	78	0.0	72.597000000000	12.099500000000	0.15	4.0	25.000000	0.0	1	;
	79	130	0.0	115.543341555551	19.257223592592	0.15	4.0	0.000000	0.0	1	;
	80	78	0.0	107.082392760492	17.847065460082	0.15	4.0	25.000000	0.0	1	;
	80	244	0.0	79.591983222227	13.265330537038	0.15	4.0	20.000000	0.0	1	;
	80	245	0.0	73.134974985529	12.189162497588	0.15	4.0	20.000000	0.0	1	;
	80	257	0.0	80.909681251990	13.484946875332	0.15	4.0	0.000000	0.0	1	;
	80	281	0.0	573.757271230274	95.626211871712	0.15	4.0	0.000000	0.0	1	;
	81	278	0.0	35.581000000000	5.930166666667	0.15	4.0	25.000000	0.0	1	;
	81	78	0.0	41.010000000000	6.835000000000	0.15	4.0	25.000000	0.0	1	;
	82	129	0.0	136.471339443765	22.745223240627	0.15	4.0	30.000000	0.0	1	;
	82	78	0.0	124.729380431136	20.788230071856	0.15	4.0	25.000000	0.0	1	;
	82	272	0.0	73.026996695095	12.171166115849	0.15	4.0	30.000000	0.0	1	;
	82	243	0.0	139.317143202613	23.219523867102	0.15	4.0	30.000000	0.0	1	;
	82	363	0.0	63.747076718917	10.624512786486	0.15	4.0	30.000000	0.0	1	;
	83	84	0.0	63.891272828774	10.648545471462	0.15	4.0	25.000000	0.0	1	;
	83	341	0.0	37.678000000000	6.279666666667	0.15	4.0	20.000000	0.0	1	;
	84	83	0.0	63.891272828774	10.648545471462	0.15	4.0	25.000000	0.0	1	;
	84	289	0.0	57.624274896212	9.604045816035	0.15	4.0	0.000000	0.0	1	;
	84	93	0.0	37.961614773302	6.326935795550	0.15	4.0	25.000000	0.0	1	;
	84	92	0.0	98.424937354151	16.404156225692	0.15	4.0	20.000000	0.0	1	;
	85	86	0.0	58.447696253911	9.741282708985	0.15	4.0	25.000000	0.0	1	;
	85	87	0.0	137.748233006156	22.958038834359	0.15	4.0	25.000000	0.0	1	;
	85	88	0.0	150.932673856592	25.155445642765	0.15	4.0	20.000000	0.0	1	;
	85	342	0.0	74.683472885213	12.447245480869	0.15	4.0	20.000000	0.0	1	;
	85	291	0.0	65.551105703564	10.925184283927	0.15	4.0	25.000000	0.0	1	;
	86	225	0.0	109.025000000000	18.170833333333	0.15	4.0	25.000000	0.0	1	;
	86	85	0.0	58.447696253911	9.741282708985	0.15	4.0	25.000000	0.0	1	;
	86	340	0.0	22.694080277503	3.782346712917	0.15	4.0	0.000000	0.0	1	;
	87	85	0.0	137.748233006156	22.958038834359	0.15	4.0	25.000000	0.0	1	;
	87	157	0.0	60.760000000000	10.126666666667	0.15	4.0	25.000000	0.0	1	;
	87	158	0.0	123.696000000000	20.616000000000	0.15	4.0	25.000000	0.0	1	;
	87	297	0.0	45.609518191144	7.601586365191	0.15	4.0	25.000000	0.0	1	;
	88	85	0.0	150.932673856592	25.155445642765	0.15	4.0	20.000000	0.0	1	;
	88	204	0.0	87.558000000000	14.593000000000	0.15	4.0	20.000000	0.0	1	;
	88	207	0.0	145.551000000000	24.258500000000	0.15	4.0	20.000000	0.0	1	;
	89	90	0.0	58.890000000000	9.815000000000	0.15	4.0	25.000000	0.0	1	;
	89	91	0.0	41.696000000000	6.949333333333	0.15	4.0	30.000000	0.0	1	;
	89	291	0.0	66.146000000000	11.024333333333	0.15	4.0	25.000000	0.0	1	;
	89	343	0.0	44.204000000000	7.367333333333	0.15	4.0	30.000000	0.0	1	;
	90	290	0.0	29.366721437818	4.894453572970	0.15	4.0	0.000000	0.0	1	;
	90	91	0.0	99.918000000000	16.653000000000	0.15	4.0	0.000000	0.0	1	;
	90	215	0.0	63.207000000000	10.534500000000	0.15	4.0	25.000000	0.0	1	;
	90	89	0.0	58.890000000000	9.815000000000	0.15	4.0	25.000000	0.0	1	;
	91	294	0.0	22.730000000000	3.788333333333	0.15	4.0	30.000000	0.0	1	;
	91	90	0.0	99.918000000000	16.653000000000	0.15	4.0	0.000000	0.0	1	;
	91	89	0.0	41.696000000000	6.949333333333	0.15	4.0	30.000000	0.0	1	;
	92	84	0.0	98.424937354151	16.404156225692	0.15	4.0	20.000000	0.0	1	;
	93	84	0.0	37.961614773302	6.326935795550	0.15	4.0	25.000000	0.0	1	;
	93	94	0.0	33.279386632458	5.546564438743	0.15	4.0	25.000000	0.0	1	;
	94	95	0.0	57.255201181254	9.542533530209	0.15	4.0	30.000000	0.0	1	;
	94	93	0.0	33.279386632458	5.546564438743	0.15	4.0	25.000000	0.0	1	;
	94	222	0.0	41.096240351175	6.849373391863	0.15	4.0	25.000000	0.0	1	;
	95	289	0.0	65.432757553982	10.905459592330	0.15	4.0	0.000000	0.0	1	;
	95	343	0.0	25.941050113792	4.323508352299	0.15	4.0	30.000000	0.0	1	;
	95	358	0.0	29.985323076008	4.997553846001	0.15	4.0	0.000000	0.0	1	;
	95	94	0.0	57.255201181254	9.542533530209	0.15	4.0	30.000000	0.0	1	;
	96	193	0.0	46.519106370753	7.753184395126	0.15	4.0	25.000000	0.0	1	;
	14	152	0.0	88.953000000000	14.825500000000	0.15	4.0	25.000000	0.0	1	;
	14	108	0.0	125.629000000000	20.938166666667	0.15	4.0	25.000000	0.0	1	;
	97	98	0.0	51.492000000000	8.582000000000	0.15	4.0	20.000000	0.0	1	;
	97	99	0.0	132.588559357837	22.098093226306	0.15	4.0	30.000000	0.0	1	;
	97	107	0.0	132.442898331858	22.073816388643	0.15	4.0	30.000000	0.0	1	;
	98	97	0.0	51.492000000000	8.582000000000	0.15	4.0	20.000000	0.0	1	;
	98	102	0.0	74.266484327246	12.377747387874	0.15	4.0	20.000000	0.0	1	;
	98	106	0.0	138.541000000000	23.090166666667	0.15	4.0	0.000000	0.0	1	;
	99	103	0.0	125.115071129541	20.852511854924	0.15	4.0	25.000000	0.0	1	;
	99	246	0.0	86.093952829975	14.348992138329	0.15	4.0	30.000000	0.0	1	;
	99	203	0.0	89.022862790164	14.837143798361	0.15	4.0	25.000000	0.0	1	;
	99	271	0.0	129.859480515649	21.643246752608	0.15	4.0	30.000000	0.0	1	;
	99	97	0.0	132.588559357837	22.098093226306	0.15	4.0	30.000000	0.0	1	;
	99	243	0.0	137.865948836132	22.977658139355	0.15	4.0	30.000000	0.0	1	;
	100	101	0.0	134.736731257077	22.456121876180	0.15	4.0	25.000000	0.0	1	;
	100	181	0.0	244.684296902897	40.780716150483	0.15	4.0	20.000000	0.0	1	;
	100	166	0.0	60.065362577649	10.010893762941	0.15	4.0	20.000000	0.0	1	;
	100	365	0.0	86.110092204862	14.351682034144	0.15	4.0	0.000000	0.0	1	;
	100	391	0.0	65.066617693236	10.844436282206	0.15	4.0	0.000000	0.0	1	;
	101	201	0.0	34.033623278448	5.672270546408	0.15	4.0	25.000000	0.0	1	;
	101	365	0.0	76.757026928460	12.792837821410	0.15	4.0	0.000000	0.0	1	;
	101	200	0.0	47.316173558642	7.886028926440	0.15	4.0	0.000000	0.0	1	;
	101	100	0.0	134.736731257077	22.456121876180	0.15	4.0	25.000000	0.0	1	;
	102	98	0.0	74.266484327246	12.377747387874	0.15	4.0	20.000000	0.0	1	;
	102	103	0.0	131.898253441482	21.983042240247	0.15	4.0	25.000000	0.0	1	;
	102	104	0.0	117.231384274611	19.538564045768	0.15	4.0	25.000000	0.0	1	;
	102	296	0.0	30.521137644625	5.086856274104	0.15	4.0	0.000000	0.0	1	;
	103	99	0.0	125.115071129541	20.852511854924	0.15	4.0	25.000000	0.0	1	;
	103	197	0.0	95.092000000000	15.848666666667	0.15	4.0	0.000000	0.0	1	;
	103	198	0.0	126.670000000000	21.111666666667	0.15	4.0	25.000000	0.0	1	;
	103	102	0.0	131.898253441482	21.983042240247	0.15	4.0	25.000000	0.0	1	;
	104	102	0.0	117.231384274611	19.538564045768	0.15	4.0	25.000000	0.0	1	;
	104	105	0.0	126.381000000000	21.063500000000	0.15	4.0	25.000000	0.0	1	;
	104	106	0.0	79.450000000000	13.241666666667	0.15	4.0	20.000000	0.0	1	;
	105	239	0.0	61.516895066265	10.252815844378	0.15	4.0	25.000000	0.0	1	;
	105	104	0.0	126.381000000000	21.063500000000	0.15	4.0	25.000000	0.0	1	;
	105	224	0.0	67.441380937678	11.240230156280	0.15	4.0	25.000000	0.0	1	;
	105	240	0.0	26.226000000000	4.371000000000	0.15	4.0	25.000000	0.0	1	;
	106	98	0.0	138.541000000000	23.090166666667	0.15	4.0	0.000000	0.0	1	;
	106	107	0.0	46.256743819136	7.709457303189	0.15	4.0	20.000000	0.0	1	;
	106	104	0.0	79.450000000000	13.241666666667	0.15	4.0	20.000000	0.0	1	;
	107	106	0.0	46.256743819136	7.709457303189	0.15	4.0	20.000000	0.0	1	;
	107	97	0.0	132.442898331858	22.073816388643	0.15	4.0	30.000000	0.0	1	;
	107	269	0.0	77.410810140443	12.901801690074	0.15	4.0	20.000000	0.0	1	;
	107	270	0.0	89.188466420719	14.864744403453	0.15	4.0	30.000000	0.0	1	;
	107	223	0.0	139.925772954346	23.320962159058	0.15	4.0	30.000000	0.0	1	;
	107	306	0.0	89.655386692815	14.942564448803	0.15	4.0	30.000000	0.0	1	;
	108	14	0.0	125.629000000000	20.938166666667	0.15	4.0	25.000000	0.0	1	;
	109	110	0.0	297.620115206628	49.603352534438	0.15	4.0	25.000000	0.0	1	;
	109	111	0.0	97.492174819442	16.248695803240	0.15	4.0	25.000000	0.0	1	;
	109	112	0.0	62.535000000000	10.422500000000	0.15	4.0	30.000000	0.0	1	;
	110	229	0.0	64.965760877671	10.827626812945	0.15	4.0	25.000000	0.0	1	;
	110	109	0.0	297.620115206628	49.603352534438	0.15	4.0	25.000000	0.0	1	;
	110	333	0.0	154.156981659827	25.692830276638	0.15	4.0	0.000000	0.0	1	;
	110	231	0.0	90.098813665883	15.016468944314	0.15	4.0	0.000000	0.0	1	;
	111	109	0.0	97.492174819442	16.248695803240	0.15	4.0	25.000000	0.0	1	;
	111	218	0.0	29.966457253216	4.994409542203	0.15	4.0	25.000000	0.0	1	;
	112	109	0.0	62.535000000000	10.422500000000	0.15	4.0	30.000000	0.0	1	;
	112	232	0.0	61.579000000000	10.263166666667	0.15	4.0	30.000000	0.0	1	;
	112	333	0.0	91.524000000000	15.254000000000	0.15	4.0	0.000000	0.0	1	;
	113	60	0.0	124.828000000000	20.804666666667	0.15	4.0	25.000000	0.0	1	;
	113	11	0.0	119.260000000000	19.876666666667	0.15	4.0	25.000000	0.0	1	;
	113	114	0.0	125.731000000000	20.955166666667	0.15	4.0	25.000000	0.0	1	;
	113	118	0.0	67.922000000000	11.320333333333	0.15	4.0	25.000000	0.0	1	;
	114	115	0.0	68.773000000000	11.462166666667	0.15	4.0	25.000000	0.0	1	;
	114	116	0.0	118.146000000000	19.691000000000	0.15	4.0	25.000000	0.0	1	;
	114	113	0.0	125.731000000000	20.955166666667	0.15	4.0	25.000000	0.0	1	;
	115	118	0.0	125.039000000000	20.839833333333	0.15	4.0	0.000000	0.0	1	;
	115	119	0.0	65.704805824616	10.950800970769	0.15	4.0	25.000000	0.0	1	;
	115	114	0.0	68.773000000000	11.462166666667	0.15	4.0	25.000000	0.0	1	;
	116	38	0.0	126.006000000000	21.001000000000	0.15	4.0	25.000000	0.0	1	;
	116	114	0.0	118.146000000000	19.691000000000	0.15	4.0	25.000000	0.0	1	;
	116	185	0.0	38.289000000000	6.381500000000	0.15	4.0	25.000000	0.0	1	;
	116	11	0.0	126.357000000000	21.059500000000	0.15	4.0	25.000000	0.0	1	;
	117	118	0.0	65.012085325853	10.835347554309	0.15	4.0	25.000000	0.0	1	;
	117	119	0.0	133.347479649481	22.224579941580	0.15	4.0	25.000000	0.0	1	;
	117	122	0.0	58.650924456601	9.775154076100	0.15	4.0	0.000000	0.0	1	;
	117	191	0.0	60.864619587436	10.144103264573	0.15	4.0	25.000000	0.0	1	;
	118	113	0.0	67.922000000000	11.320333333333	0.15	4.0	25.000000	0.0	1	;
	118	115	0.0	125.039000000000	20.839833333333	0.15	4.0	0.000000	0.0	1	;
	118	62	0.0	125.387000000000	20.897833333333	0.15	4.0	0.000000	0.0	1	;
	118	117	0.0	65.012085325853	10.835347554309	0.15	4.0	25.000000	0.0	1	;
	119	115	0.0	65.704805824616	10.950800970769	0.15	4.0	25.000000	0.0	1	;
	119	57	0.0	136.029277587482	22.671546264580	0.15	4.0	25.000000	0.0	1	;
	119	249	0.0	122.709819960972	20.451636660162	0.15	4.0	25.000000	0.0	1	;
	119	117	0.0	133.347479649481	22.224579941580	0.15	4.0	0.000000	0.0	1	;
	120	38	0.0	39.786000000000	6.631000000000	0.15	4.0	25.000000	0.0	1	;
	120	58	0.0	79.504000000000	13.250666666667	0.15	4.0	25.000000	0.0	1	;
	121	62	0.0	65.510010522969	10.918335087162	0.15	4.0	25.000000	0.0	1	;
	121	122	0.0	83.841841200942	13.973640200157	0.15	4.0	25.000000	0.0	1	;
	121	164	0.0	66.344540173564	11.057423362261	0.15	4.0	25.000000	0.0	1	;
	121	377	0.0	36.238419828998	6.039736638166	0.15	4.0	0.000000	0.0	1	;
	122	117	0.0	58.650924456601	9.775154076100	0.15	4.0	25.000000	0.0	1	;
	122	192	0.0	130.963325415698	21.827220902616	0.15	4.0	0.000000	0.0	1	;
	122	121	0.0	83.841841200942	13.973640200157	0.15	4.0	0.000000	0.0	1	;
	123	129	0.0	66.385486412188	11.064247735365	0.15	4.0	25.000000	0.0	1	;
	123	316	0.0	84.087986398291	14.014664399715	0.15	4.0	0.000000	0.0	1	;
	123	51	0.0	60.705000000000	10.117500000000	0.15	4.0	25.000000	0.0	1	;
	124	132	0.0	53.340000000000	8.890000000000	0.15	4.0	25.000000	0.0	1	;
	124	133	0.0	113.042000000000	18.840333333333	0.15	4.0	0.000000	0.0	1	;
	124	51	0.0	71.061000000000	11.843500000000	0.15	4.0	25.000000	0.0	1	;
	125	126	0.0	79.897666304912	13.316277717485	0.15	4.0	30.000000	0.0	1	;
	125	35	0.0	123.076000000000	20.512666666667	0.15	4.0	25.000000	0.0	1	;
	125	34	0.0	61.272000000000	10.212000000000	0.15	4.0	30.000000	0.0	1	;
	125	303	0.0	39.851510367314	6.641918394552	0.15	4.0	25.000000	0.0	1	;
	126	46	0.0	63.863008150727	10.643834691788	0.15	4.0	30.000000	0.0	1	;
	126	48	0.0	64.300079604633	10.716679934105	0.15	4.0	0.000000	0.0	1	;
	126	361	0.0	72.146708040617	12.024451340103	0.15	4.0	0.000000	0.0	1	;
	126	125	0.0	79.897666304912	13.316277717485	0.15	4.0	30.000000	0.0	1	;
	127	128	0.0	22.561000000000	3.760166666667	0.15	4.0	25.000000	0.0	1	;
	127	5	0.0	41.321000000000	6.886833333333	0.15	4.0	30.000000	0.0	1	;
	127	241	0.0	63.692000000000	10.615333333333	0.15	4.0	25.000000	0.0	1	;
	127	315	0.0	23.385000000000	3.897500000000	0.15	4.0	30.000000	0.0	1	;
	128	325	0.0	52.150000000000	8.691666666667	0.15	4.0	25.000000	0.0	1	;
	128	127	0.0	22.561000000000	3.760166666667	0.15	4.0	25.000000	0.0	1	;
	5	50	0.0	87.443385941442	14.573897656907	0.15	4.0	30.000000	0.0	1	;
	5	172	0.0	128.262000000000	21.377000000000	0.15	4.0	0.000000	0.0	1	;
	5	127	0.0	41.321000000000	6.886833333333	0.15	4.0	30.000000	0.0	1	;
	129	130	0.0	68.440647074406	11.406774512401	0.15	4.0	25.000000	0.0	1	;
	129	131	0.0	152.928610208488	25.488101701415	0.15	4.0	30.000000	0.0	1	;