<NUMBER OF ZONES> 14
<TOTAL OD FLOW> 1341.000000
<END OF METADATA>

Origin 1
2	:	5.000000;	3	:	5.000000;	4	:	5.000000;	5	:	11.000000;	6	:	7.000000;	7	:	8.000000;
8	:	5.000000;	9	:	0.000000;	10	:	1.000000;	11	:	2.000000;	12	:	2.000000;	13	:	8.000000;
14	:	1.000000;

Origin 2
1	:	8.000000;	3	:	12.000000;	4	:	3.000000;	5	:	21.000000;	6	:	24.000000;	7	:	12.000000;
8	:	2.000000;	9	:	0.000000;	10	:	1.000000;	11	:	2.000000;	12	:	1.000000;	13	:	4.000000;
14	:	1.000000;

Origin 3
1	:	4.000000;	2	:	10.000000;	4	:	10.000000;	5	:	19.000000;	6	:	7.000000;	7	:	14.000000;
8	:	2.000000;	9	:	3.000000;	10	:	2.000000;	11	:	5.000000;	12	:	6.000000;	13	:	8.000000;
14	:	2.000000;

Origin 4
1	:	4.000000;	2	:	5.000000;	3	:	10.000000;	5	:	20.000000;	6	:	15.000000;	7	:	13.000000;
8	:	1.000000;	9	:	6.000000;	10	:	4.000000;	11	:	4.000000;	12	:	8.000000;	13	:	8.000000;
14	:	2.000000;

Origin 5
1	:	11.000000;	2	:	19.000000;	3	:	26.000000;	4	:	18.000000;	6	:	37.000000;	7	:	55.000000;
8	:	5.000000;	9	:	13.000000;	10	:	15.000000;	11	:	14.000000;	12	:	23.000000;	13	:	15.000000;
14	:	1.000000;

Origin 6
1	:	5.000000;	2	:	24.000000;	3	:	9.000000;	4	:	16.000000;	5	:	29.000000;	7	:	37.000000;
8	:	2.000000;	9	:	4.000000;	10	:	2.000000;	11	:	2.000000;	12	:	8.000000;	13	:	5.000000;
14	:	1.000000;

Origin 7
1	:	8.000000;	2	:	12.000000;	3	:	12.000000;	4	:	12.000000;	5	:	42.000000;	6	:	35.000000;
8	:	25.000000;	9	:	4.000000;	10	:	8.000000;	11	:	5.000000;	12	:	11.000000;	13	:	14.000000;
14	:	4.000000;

Origin 8
1	:	4.000000;	2	:	2.000000;	3	:	2.000000;	4	:	0.000000;	5	:	3.000000;	6	:	3.000000;
7	:	19.000000;	9	:	1.000000;	10	:	6.000000;	11	:	1.000000;	12	:	2.000000;	13	:	2.000000;
14	:	1.000000;

Origin 9
1	:	0.000000;	2	:	1.000000;	3	:	3.000000;	4	:	4.000000;	5	:	11.000000;	6	:	5.000000;
7	:	5.000000;	8	:	2.000000;	10	:	2.000000;	11	:	1.000000;	12	:	3.000000;	13	:	7.000000;
14	:	1.000000;

Origin 10
1	:	1.000000;	2	:	1.000000;	3	:	3.000000;	4	:	1.000000;	5	:	6.000000;	6	:	1.000000;
7	:	9.000000;	8	:	4.000000;	9	:	1.000000;	11	:	2.000000;	12	:	4.000000;	13	:	5.000000;
14	:	2.000000;

Origin 11
1	:	3.000000;	2	:	2.000000;	3	:	3.000000;	4	:	5.000000;	5	:	9.000000;	6	:	4.000000;
7	:	7.000000;	8	:	2.000000;	9	:	1.000000;	10	:	4.000000;	12	:	4.000000;	13	:	10.000000;
14	:	1.000000;

Origin 12
1	:	3.000000;	2	:	2.000000;	3	:	4.000000;	4	:	7.000000;	5	:	18.000000;	6	:	6.000000;
7	:	15.000000;	8	:	3.000000;	9	:	2.000000;	10	:	4.000000;	11	:	4.000000;	13	:	13.000000;
14	:	5.000000;

Origin 13
1	:	6.000000;	2	:	7.000000;	3	:	8.000000;	4	:	7.000000;	5	:	13.000000;	6	:	4.000000;
7	:	20.000000;	8	:	4.000000;	9	:	3.000000;	10	:	5.000000;	11	:	7.000000;	12	:	11.000000;
14	:	12.000000;

Origin 14
1	:	1.000000;	2	:	1.000000;	3	:	4.000000;	4	:	1.000000;	5	:	2.000000;	6	:	1.000000;
7	:	6.000000;	8	:	0.000000;	9	:	2.000000;	10	:	1.000000;	11	:	2.000000;	12	:	3.000000;
13	:	7.000000;

