<NUMBER OF ZONES> 30
<NUMBER OF NODES> 1265
<FIRST THRU NODE> 31
<NUMBER OF LINKS> 3732
<ORIGINAL HEADER>~	Init node	Term node	Capacity	Length	Free Flow Time	B	Power	Speed limit	Toll	Type	;
<END OF METADATA>

~	init_node	term_node	capacity	length	free_flow_time	b	power	speed	toll	link_type	;
	31	32	0.0	124.311074423058	20.718512403843	0.15	4.0	30.000000	0.0	1	;
	31	33	0.0	135.579770700951	22.596628450158	0.15	4.0	25.000000	0.0	1	;
	31	507	0.0	73.540973213366	12.256828868894	0.15	4.0	30.000000	0.0	1	;
	32	504	0.0	121.325000000000	20.220833333333	0.15	4.0	25.000000	0.0	1	;
	32	505	0.0	90.088000000000	15.014666666667	0.15	4.0	30.000000	0.0	1	;
	32	31	0.0	124.311074423058	20.718512403843	0.15	4.0	30.000000	0.0	1	;
	32	90	0.0	129.044740021962	21.507456670327	0.15	4.0	25.000000	0.0	1	;
	33	81	0.0	137.700582069338	22.950097011556	0.15	4.0	25.000000	0.0	1	;
	33	72	0.0	124.913481993373	20.818913665562	0.15	4.0	30.000000	0.0	1	;
	33	31	0.0	135.579770700951	22.596628450158	0.15	4.0	25.000000	0.0	1	;
	33	90	0.0	126.710176251426	21.118362708571	0.15	4.0	30.000000	0.0	1	;
	34	35	0.0	94.701000000000	15.783500000000	0.15	4.0	20.000000	0.0	1	;
	34	36	0.0	108.120000000000	18.020000000000	0.15	4.0	20.000000	0.0	1	;
	34	37	0.0	43.712000000000	7.285333333333	0.15	4.0	20.000000	0.0	1	;
	35	36	0.0	312.719000000000	52.119833333333	0.15	4.0	20.000000	0.0	1	;
	35	34	0.0	94.701000000000	15.783500000000	0.15	4.0	20.000000	0.0	1	;
	36	35	0.0	312.719000000000	52.119833333333	0.15	4.0	20.000000	0.0	1	;
	36	646	0.0	96.056322046105	16.009387007684	0.15	4.0	20.000000	0.0	1	;
	36	34	0.0	108.120000000000	18.020000000000	0.15	4.0	20.000000	0.0	1	;
	37	34	0.0	43.712000000000	7.285333333333	0.15	4.0	20.000000	0.0	1	;
	37	979	0.0	219.766249826920	36.627708304487	0.15	4.0	20.000000	0.0	1	;
	38	39	0.0	26.612000000000	4.435333333333	0.15	4.0	20.000000	0.0	1	;
	38	40	0.0	72.004000000000	12.000666666667	0.15	4.0	25.000000	0.0	1	;
	38	41	0.0	64.344000000000	10.724000000000	0.15	4.0	25.000000	0.0	1	;
	39	697	0.0	30.261914281231	5.043652380205	0.15	4.0	20.000000	0.0	1	;
	39	38	0.0	26.612000000000	4.435333333333	0.15	4.0	20.000000	0.0	1	;
	40	1040	0.0	63.501088898989	10.583514816498	0.15	4.0	0.000000	0.0	1	;
	40	1043	0.0	206.260000000000	34.376666666667	0.15	4.0	25.000000	0.0	1	;
	40	38	0.0	72.004000000000	12.000666666667	0.15	4.0	25.000000	0.0	1	;
	41	42	0.0	66.641000000000	11.106833333333	0.15	4.0	30.000000	0.0	1	;
	41	38	0.0	64.344000000000	10.724000000000	0.15	4.0	25.000000	0.0	1	;
	41	43	0.0	65.017104583563	10.836184097260	0.15	4.0	25.000000	0.0	1	;
	41	44	0.0	54.305570943454	9.050928490576	0.15	4.0	0.000000	0.0	1	;
	42	699	0.0	22.055000000000	3.675833333333	0.15	4.0	30.000000	0.0	1	;
	42	41	0.0	66.641000000000	11.106833333333	0.15	4.0	30.000000	0.0	1	;
	42	1007	0.0	68.613000000000	11.435500000000	0.15	4.0	0.000000	0.0	1	;
	43	41	0.0	65.017104583563	10.836184097260	0.15	4.0	25.000000	0.0	1	;
	43	566	0.0	72.370188024401	12.061698004067	0.15	4.0	25.000000	0.0	1	;
	43	966	0.0	75.602709236943	12.600451539491	0.15	4.0	0.000000	0.0	1	;
	43	567	0.0	77.533398220598	12.922233036766	0.15	4.0	0.000000	0.0	1	;
	44	852	0.0	81.829795239844	13.638299206641	0.15	4.0	0.000000	0.0	1	;
	44	41	0.0	54.305570943454	9.050928490576	0.15	4.0	0.000000	0.0	1	;
	44	742	0.0	71.930110705169	11.988351784195	0.15	4.0	30.000000	0.0	1	;
	44	743	0.0	118.677272696031	19.779545449339	0.15	4.0	0.000000	0.0	1	;
	45	46	0.0	73.258785911575	12.209797651929	0.15	4.0	25.000000	0.0	1	;
	45	47	0.0	67.088907732266	11.181484622044	0.15	4.0	25.000000	0.0	1	;
	45	958	0.0	23.091722986207	3.848620497701	0.15	4.0	25.000000	0.0	1	;
	45	751	0.0	71.692957076516	11.948826179419	0.15	4.0	25.000000	0.0	1	;
	46	956	0.0	77.236416700805	12.872736116801	0.15	4.0	0.000000	0.0	1	;
	46	240	0.0	71.911481970879	11.985246995146	0.15	4.0	25.000000	0.0	1	;
	46	45	0.0	73.258785911575	12.209797651929	0.15	4.0	0.000000	0.0	1	;
	46	961	0.0	118.250857812149	19.708476302025	0.15	4.0	0.000000	0.0	1	;
	46	244	0.0	79.123333826184	13.187222304364	0.15	4.0	0.000000	0.0	1	;
	47	956	0.0	63.725253801257	10.620875633543	0.15	4.0	0.000000	0.0	1	;
	47	14	0.0	64.590618646855	10.765103107809	0.15	4.0	0.000000	0.0	1	;
	47	594	0.0	70.418000000000	11.736333333333	0.15	4.0	25.000000	0.0	1	;
	47	45	0.0	67.088907732266	11.181484622044	0.15	4.0	25.000000	0.0	1	;
	48	49	0.0	64.324000000000	10.720666666667	0.15	4.0	25.000000	0.0	1	;
	48	50	0.0	63.036000000000	10.506000000000	0.15	4.0	25.000000	0.0	1	;
	48	51	0.0	65.866000000000	10.977666666667	0.15	4.0	25.000000	0.0	1	;
	48	961	0.0	62.165000000000	10.360833333333	0.15	4.0	25.000000	0.0	1	;
	49	850	0.0	62.789000000000	10.464833333333	0.15	4.0	25.000000	0.0	1	;
	49	959	0.0	64.206000000000	10.701000000000	0.15	4.0	0.000000	0.0	1	;
	49	48	0.0	64.324000000000	10.720666666667	0.15	4.0	25.000000	0.0	1	;
	50	237	0.0	66.765000000000	11.127500000000	0.15	4.0	25.000000	0.0	1	;
	50	963	0.0	24.777000000000	4.129500000000	0.15	4.0	0.000000	0.0	1	;
	50	962	0.0	56.559118950840	9.426519825140	0.15	4.0	0.000000	0.0	1	;
	50	48	0.0	63.036000000000	10.506000000000	0.15	4.0	25.000000	0.0	1	;
	51	958	0.0	38.986000000000	6.497666666667	0.15	4.0	25.000000	0.0	1	;
	51	48	0.0	65.866000000000	10.977666666667	0.15	4.0	25.000000	0.0	1	;
	51	959	0.0	64.040000000000	10.673333333333	0.15	4.0	0.000000	0.0	1	;
	52	53	0.0	57.274052141186	9.545675356864	0.15	4.0	25.000000	0.0	1	;
	52	594	0.0	132.252802822218	22.042133803703	0.15	4.0	25.000000	0.0	1	;
	52	621	0.0	142.457056131470	23.742842688578	0.15	4.0	0.000000	0.0	1	;
	52	241	0.0	96.754294913052	16.125715818842	0.15	4.0	25.000000	0.0	1	;
	52	934	0.0	113.514312681333	18.919052113555	0.15	4.0	0.000000	0.0	1	;
	52	1065	0.0	59.114608537926	9.852434756321	0.15	4.0	25.000000	0.0	1	;
	53	52	0.0	53.902477258915	8.983746209819	0.15	4.0	25.000000	0.0	1	;
	53	621	0.0	95.060370868720	15.843395144787	0.15	4.0	25.000000	0.0	1	;
	53	1065	0.0	63.353643385564	10.558940564261	0.15	4.0	0.000000	0.0	1	;
	54	55	0.0	61.453942389395	10.242323731566	0.15	4.0	20.000000	0.0	1	;
	54	56	0.0	103.015028067612	17.169171344602	0.15	4.0	20.000000	0.0	1	;
	54	57	0.0	108.286919084246	18.047819847374	0.15	4.0	20.000000	0.0	1	;
	55	745	0.0	44.747000000000	7.457833333333	0.15	4.0	20.000000	0.0	1	;
	55	54	0.0	61.453942389395	10.242323731566	0.15	4.0	20.000000	0.0	1	;
	56	54	0.0	52.604121252046	8.767353542008	0.15	4.0	20.000000	0.0	1	;
	56	581	0.0	64.117000000000	10.686166666667	0.15	4.0	20.000000	0.0	1	;
	57	54	0.0	108.286919084246	18.047819847374	0.15	4.0	20.000000	0.0	1	;
	57	58	0.0	96.627000000000	16.104500000000	0.15	4.0	25.000000	0.0	1	;
	57	59	0.0	82.088000000000	13.681333333333	0.15	4.0	25.000000	0.0	1	;
	58	60	0.0	42.611000000000	7.101833333333	0.15	4.0	25.000000	0.0	1	;
	58	57	0.0	96.627000000000	16.104500000000	0.15	4.0	25.000000	0.0	1	;
	58	61	0.0	46.959000000000	7.826500000000	0.15	4.0	20.000000	0.0	1	;
	58	3	0.0	25.263000000000	4.210500000000	0.15	4.0	0.000000	0.0	1	;
	59	391	0.0	33.148998114096	5.524833019016	0.15	4.0	25.000000	0.0	1	;
	59	57	0.0	82.088000000000	13.681333333333	0.15	4.0	25.000000	0.0	1	;
	59	390	0.0	47.148000000000	7.858000000000	0.15	4.0	25.000000	0.0	1	;
	59	1173	0.0	53.409865561946	8.901644260324	0.15	4.0	25.000000	0.0	1	;
	60	1129	0.0	28.316774043663	4.719462340610	0.15	4.0	25.000000	0.0	1	;
	60	58	0.0	42.611000000000	7.101833333333	0.15	4.0	25.000000	0.0	1	;
	60	61	0.0	90.974000000000	15.162333333333	0.15	4.0	0.000000	0.0	1	;
	61	1175	0.0	33.461000000000	5.576833333333	0.15	4.0	20.000000	0.0	1	;
	61	58	0.0	46.959000000000	7.826500000000	0.15	4.0	20.000000	0.0	1	;
	61	60	0.0	90.974000000000	15.162333333333	0.15	4.0	0.000000	0.0	1	;
	3	1163	0.0	22.906000000000	3.817666666667	0.15	4.0	0.000000	0.0	1	;
	3	58	0.0	25.263000000000	4.210500000000	0.15	4.0	0.000000	0.0	1	;
	62	63	0.0	30.969000000000	5.161500000000	0.15	4.0	25.000000	0.0	1	;
	62	64	0.0	68.073506957014	11.345584492836	0.15	4.0	20.000000	0.0	1	;
	62	65	0.0	147.745000000000	24.624166666667	0.15	4.0	25.000000	0.0	1	;
	63	62	0.0	30.969000000000	5.161500000000	0.15	4.0	25.000000	0.0	1	;
	63	1129	0.0	64.976378857076	10.829396476179	0.15	4.0	25.000000	0.0	1	;
	63	1238	0.0	25.820000000000	4.303333333333	0.15	4.0	0.000000	0.0	1	;
	64	1130	0.0	84.116954624445	14.019492437407	0.15	4.0	0.000000	0.0	1	;
	64	693	0.0	51.519555254492	8.586592542415	0.15	4.0	20.000000	0.0	1	;
	64	62	0.0	68.073506957014	11.345584492836	0.15	4.0	20.000000	0.0	1	;
	65	62	0.0	147.745000000000	24.624166666667	0.15	4.0	25.000000	0.0	1	;
	66	67	0.0	131.428127211108	21.904687868518	0.15	4.0	25.000000	0.0	1	;
	66	68	0.0	66.173518540784	11.028919756797	0.15	4.0	25.000000	0.0	1	;
	66	69	0.0	91.351882807986	15.225313801331	0.15	4.0	25.000000	0.0	1	;
	66	1137	0.0	60.273131693738	10.045521948956	0.15	4.0	25.000000	0.0	1	;
	66	71	0.0	169.933105836773	28.322184306129	0.15	4.0	0.000000	0.0	1	;
	67	70	0.0	125.272983820837	20.878830636806	0.15	4.0	20.000000	0.0	1	;
	67	66	0.0	131.428127211108	21.904687868518	0.15	4.0	25.000000	0.0	1	;
	67	71	0.0	31.726958407019	5.287826401170	0.15	4.0	25.000000	0.0	1	;
	68	378	0.0	68.862000000000	11.477000000000	0.15	4.0	25.000000	0.0	1	;
	68	1113	0.0	32.912895737074	5.485482622846	0.15	4.0	0.000000	0.0	1	;
	68	66	0.0	66.173518540784	11.028919756797	0.15	4.0	25.000000	0.0	1	;
	69	388	0.0	40.903000000000	6.817166666667	0.15	4.0	25.000000	0.0	1	;
	69	66	0.0	91.351882807986	15.225313801331	0.15	4.0	25.000000	0.0	1	;
	70	67	0.0	125.272983820837	20.878830636806	0.15	4.0	20.000000	0.0	1	;
	70	1170	0.0	54.188368599200	9.031394766533	0.15	4.0	25.000000	0.0	1	;
	70	389	0.0	52.351185419138	8.725197569856	0.15	4.0	25.000000	0.0	1	;
	70	1172	0.0	64.933358185105	10.822226364184	0.15	4.0	0.000000	0.0	1	;
	71	558	0.0	103.722921046841	17.287153507807	0.15	4.0	25.000000	0.0	1	;
	71	67	0.0	31.726958407019	5.287826401170	0.15	4.0	25.000000	0.0	1	;
	71	1105	0.0	87.245796011027	14.540966001838	0.15	4.0	0.000000	0.0	1	;
	71	66	0.0	169.933105836773	28.322184306129	0.15	4.0	0.000000	0.0	1	;
	72	73	0.0	26.125000000000	4.354166666667	0.15	4.0	25.000000	0.0	1	;
	72	74	0.0	64.847000000000	10.807833333333	0.15	4.0	30.000000	0.0	1	;
	72	33	0.0	124.913481993373	20.818913665562	0.15	4.0	30.000000	0.0	1	;
	72	80	0.0	124.153000000000	20.692166666667	0.15	4.0	25.000000	0.0	1	;
	73	506	0.0	96.294000000000	16.049000000000	0.15	4.0	25.000000	0.0	1	;
	73	945	0.0	38.633000000000	6.438833333333	0.15	4.0	0.000000	0.0	1	;
	73	72	0.0	26.125000000000	4.354166666667	0.15	4.0	25.000000	0.0	1	;
	74	363	0.0	61.272000000000	10.212000000000	0.15	4.0	30.000000	0.0	1	;
	74	5	0.0	42.472000000000	7.078666666667	0.15	4.0	0.000000	0.0	1	;
	74	72	0.0	64.847000000000	10.807833333333	0.15	4.0	30.000000	0.0	1	;
	75	76	0.0	62.793000000000	10.465500000000	0.15	4.0	25.000000	0.0	1	;
	75	77	0.0	58.384000000000	9.730666666667	0.15	4.0	25.000000	0.0	1	;
	75	82	0.0	122.762000000000	20.460333333333	0.15	4.0	25.000000	0.0	1	;
	75	363	0.0	123.076000000000	20.512666666667	0.15	4.0	25.000000	0.0	1	;
	76	96	0.0	115.242000000000	19.207000000000	0.15	4.0	0.000000	0.0	1	;
	76	94	0.0	62.021000000000	10.336833333333	0.15	4.0	25.000000	0.0	1	;
	76	75	0.0	62.793000000000	10.465500000000	0.15	4.0	25.000000	0.0	1	;
	77	80	0.0	67.516000000000	11.252666666667	0.15	4.0	25.000000	0.0	1	;
	77	1261	0.0	34.914000000000	5.819000000000	0.15	4.0	0.000000	0.0	1	;
	77	75	0.0	58.384000000000	9.730666666667	0.15	4.0	25.000000	0.0	1	;
	78	79	0.0	38.137000000000	6.356166666667	0.15	4.0	25.000000	0.0	1	;
	78	80	0.0	126.373000000000	21.062166666667	0.15	4.0	25.000000	0.0	1	;
	78	328	0.0	126.006000000000	21.001000000000	0.15	4.0	25.000000	0.0	1	;
	78	338	0.0	39.786000000000	6.631000000000	0.15	4.0	25.000000	0.0	1	;
	79	94	0.0	88.261000000000	14.710166666667	0.15	4.0	25.000000	0.0	1	;
	79	78	0.0	38.137000000000	6.356166666667	0.15	4.0	25.000000	0.0	1	;
	80	72	0.0	124.153000000000	20.692166666667	0.15	4.0	25.000000	0.0	1	;
	80	81	0.0	125.307176108979	20.884529351496	0.15	4.0	25.000000	0.0	1	;
	80	77	0.0	67.516000000000	11.252666666667	0.15	4.0	25.000000	0.0	1	;
	80	78	0.0	126.373000000000	21.062166666667	0.15	4.0	25.000000	0.0	1	;
	81	98	0.0	131.612326752001	21.935387792000	0.15	4.0	25.000000	0.0	1	;
	81	89	0.0	123.112729813387	20.518788302231	0.15	4.0	25.000000	0.0	1	;
	81	33	0.0	137.700582069338	22.950097011556	0.15	4.0	25.000000	0.0	1	;
	81	80	0.0	125.307176108979	20.884529351496	0.15	4.0	25.000000	0.0	1	;
	82	75	0.0	122.762000000000	20.460333333333	0.15	4.0	25.000000	0.0	1	;
	82	4	0.0	74.781000000000	12.463500000000	0.15	4.0	25.000000	0.0	1	;
	82	92	0.0	123.268000000000	20.544666666667	0.15	4.0	25.000000	0.0	1	;
	82	1167	0.0	51.499000000000	8.583166666667	0.15	4.0	25.000000	0.0	1	;
	4	86	0.0	50.595000000000	8.432500000000	0.15	4.0	25.000000	0.0	1	;
	4	1169	0.0	54.998000000000	9.166333333333	0.15	4.0	0.000000	0.0	1	;
	4	82	0.0	74.781000000000	12.463500000000	0.15	4.0	25.000000	0.0	1	;
	83	84	0.0	32.823000000000	5.470500000000	0.15	4.0	25.000000	0.0	1	;
	83	85	0.0	35.271000000000	5.878500000000	0.15	4.0	25.000000	0.0	1	;
	83	422	0.0	46.858310597357	7.809718432893	0.15	4.0	25.000000	0.0	1	;
	83	625	0.0	70.420495054982	11.736749175830	0.15	4.0	25.000000	0.0	1	;
	84	1167	0.0	41.213000000000	6.868833333333	0.15	4.0	25.000000	0.0	1	;
	84	1168	0.0	79.914000000000	13.319000000000	0.15	4.0	0.000000	0.0	1	;
	84	83	0.0	32.823000000000	5.470500000000	0.15	4.0	25.000000	0.0	1	;
	85	1204	0.0	30.119000000000	5.019833333333	0.15	4.0	25.000000	0.0	1	;
	85	1244	0.0	21.802000000000	3.633666666667	0.15	4.0	0.000000	0.0	1	;
	85	83	0.0	35.271000000000	5.878500000000	0.15	4.0	25.000000	0.0	1	;
	86	87	0.0	60.770000000000	10.128333333333	0.15	4.0	30.000000	0.0	1	;
	86	88	0.0	38.261684521565	6.376947420261	0.15	4.0	25.000000	0.0	1	;
	86	4	0.0	50.595000000000	8.432500000000	0.15	4.0	25.000000	0.0	1	;
	86	364	0.0	63.863008150727	10.643834691788	0.15	4.0	30.000000	0.0	1	;
	87	922	0.0	121.296000000000	20.216000000000	0.15	4.0	0.000000	0.0	1	;
	87	624	0.0	64.206000000000	10.701000000000	0.15	4.0	30.000000	0.0	1	;
	87	86	0.0	60.770000000000	10.128333333333	0.15	4.0	30.000000	0.0	1	;
	88	1144	0.0	60.708146238979	10.118024373163	0.15	4.0	25.000000	0.0	1	;
	88	1145	0.0	104.466340736147	17.411056789358	0.15	4.0	0.000000	0.0	1	;
	88	1146	0.0	96.244750742123	16.040791790354	0.15	4.0	0.000000	0.0	1	;
	88	364	0.0	64.300079604633	10.716679934105	0.15	4.0	0.000000	0.0	1	;
	88	86	0.0	38.261684521565	6.376947420261	0.15	4.0	25.000000	0.0	1	;
	89	90	0.0	120.972405375771	20.162067562628	0.15	4.0	25.000000	0.0	1	;
	89	91	0.0	125.000000000000	20.833333333333	0.15	4.0	25.000000	0.0	1	;
	89	81	0.0	123.112729813387	20.518788302231	0.15	4.0	25.000000	0.0	1	;
	89	97	0.0	126.696564458365	21.116094076394	0.15	4.0	25.000000	0.0	1	;
	90	33	0.0	126.710176251426	21.118362708571	0.15	4.0	30.000000	0.0	1	;
	90	32	0.0	129.044740021962	21.507456670327	0.15	4.0	25.000000	0.0	1	;
	90	89	0.0	120.972405375771	20.162067562628	0.15	4.0	25.000000	0.0	1	;
	90	6	0.0	87.443385941442	14.573897656907	0.15	4.0	30.000000	0.0	1	;
	91	357	0.0	60.705000000000	10.117500000000	0.15	4.0	25.000000	0.0	1	;
	91	358	0.0	71.061000000000	11.843500000000	0.15	4.0	25.000000	0.0	1	;
	91	89	0.0	125.000000000000	20.833333333333	0.15	4.0	25.000000	0.0	1	;
	91	1002	0.0	47.184000000000	7.864000000000	0.15	4.0	25.000000	0.0	1	;
	92	93	0.0	127.021000000000	21.170166666667	0.15	4.0	25.000000	0.0	1	;
	92	82	0.0	123.268000000000	20.544666666667	0.15	4.0	25.000000	0.0	1	;
	92	96	0.0	59.934000000000	9.989000000000	0.15	4.0	25.000000	0.0	1	;
	92	549	0.0	46.632000000000	7.772000000000	0.15	4.0	25.000000	0.0	1	;
	93	552	0.0	42.882811798632	7.147135299772	0.15	4.0	25.000000	0.0	1	;
	93	402	0.0	126.305000000000	21.050833333333	0.15	4.0	25.000000	0.0	1	;
	93	92	0.0	127.021000000000	21.170166666667	0.15	4.0	25.000000	0.0	1	;
	93	1204	0.0	56.477000000000	9.412833333333	0.15	4.0	25.000000	0.0	1	;
	94	95	0.0	124.297000000000	20.716166666667	0.15	4.0	25.000000	0.0	1	;
	94	96	0.0	63.050000000000	10.508333333333	0.15	4.0	25.000000	0.0	1	;
	94	76	0.0	62.021000000000	10.336833333333	0.15	4.0	25.000000	0.0	1	;
	94	79	0.0	88.261000000000	14.710166666667	0.15	4.0	25.000000	0.0	1	;
	95	526	0.0	125.003000000000	20.833833333333	0.15	4.0	25.000000	0.0	1	;
	95	110	0.0	128.119000000000	21.353166666667	0.15	4.0	25.000000	0.0	1	;
	95	527	0.0	87.411000000000	14.568500000000	0.15	4.0	25.000000	0.0	1	;
	95	94	0.0	124.297000000000	20.716166666667	0.15	4.0	25.000000	0.0	1	;
	96	92	0.0	59.934000000000	9.989000000000	0.15	4.0	25.000000	0.0	1	;
	96	76	0.0	115.242000000000	19.207000000000	0.15	4.0	0.000000	0.0	1	;
	96	94	0.0	63.050000000000	10.508333333333	0.15	4.0	25.000000	0.0	1	;
	97	98	0.0	133.159985797990	22.193330966332	0.15	4.0	25.000000	0.0	1	;
	97	89	0.0	126.696564458365	21.116094076394	0.15	4.0	25.000000	0.0	1	;
	97	331	0.0	136.029277587482	22.671546264580	0.15	4.0	0.000000	0.0	1	;
	97	371	0.0	59.902030957553	9.983671826259	0.15	4.0	25.000000	0.0	1	;
	98	338	0.0	79.504000000000	13.250666666667	0.15	4.0	25.000000	0.0	1	;
	98	81	0.0	131.612326752001	21.935387792000	0.15	4.0	25.000000	0.0	1	;
	98	97	0.0	133.159985797990	22.193330966332	0.15	4.0	25.000000	0.0	1	;
	99	100	0.0	121.336000000000	20.222666666667	0.15	4.0	25.000000	0.0	1	;
	99	17	0.0	123.621000000000	20.603500000000	0.15	4.0	25.000000	0.0	1	;
	99	101	0.0	122.680000000000	20.446666666667	0.15	4.0	25.000000	0.0	1	;
	99	1202	0.0	125.625000000000	20.937500000000	0.15	4.0	25.000000	0.0	1	;
	100	102	0.0	67.213000000000	11.202166666667	0.15	4.0	25.000000	0.0	1	;
	100	99	0.0	121.336000000000	20.222666666667	0.15	4.0	25.000000	0.0	1	;
	100	103	0.0	128.232000000000	21.372000000000	0.15	4.0	25.000000	0.0	1	;
	100	325	0.0	124.828000000000	20.804666666667	0.15	4.0	25.000000	0.0	1	;
	17	328	0.0	126.357000000000	21.059500000000	0.15	4.0	25.000000	0.0	1	;
	17	110	0.0	124.695000000000	20.782500000000	0.15	4.0	25.000000	0.0	1	;
	17	99	0.0	123.621000000000	20.603500000000	0.15	4.0	25.000000	0.0	1	;
	17	325	0.0	119.260000000000	19.876666666667	0.15	4.0	25.000000	0.0	1	;
	101	18	0.0	126.594000000000	21.099000000000	0.15	4.0	25.000000	0.0	1	;
	101	99	0.0	122.680000000000	20.446666666667	0.15	4.0	25.000000	0.0	1	;
	101	19	0.0	125.899000000000	20.983166666667	0.15	4.0	25.000000	0.0	1	;
	101	110	0.0	122.466000000000	20.411000000000	0.15	4.0	25.000000	0.0	1	;
	102	355	0.0	65.510010522969	10.918335087162	0.15	4.0	25.000000	0.0	1	;
	102	100	0.0	67.213000000000	11.202166666667	0.15	4.0	25.000000	0.0	1	;
	102	330	0.0	125.387000000000	20.897833333333	0.15	4.0	0.000000	0.0	1	;
	102	948	0.0	123.977000000000	20.662833333333	0.15	4.0	0.000000	0.0	1	;
	103	934	0.0	60.687000000000	10.114500000000	0.15	4.0	0.000000	0.0	1	;
	103	1202	0.0	121.959000000000	20.326500000000	0.15	4.0	10.000000	0.0	1	;
	103	1065	0.0	128.881263538070	21.480210589678	0.15	4.0	25.000000	0.0	1	;
	103	948	0.0	67.691000000000	11.281833333333	0.15	4.0	10.000000	0.0	1	;
	103	100	0.0	128.232000000000	21.372000000000	0.15	4.0	25.000000	0.0	1	;
	19	104	0.0	123.131000000000	20.521833333333	0.15	4.0	25.000000	0.0	1	;
	19	105	0.0	123.712000000000	20.618666666667	0.15	4.0	25.000000	0.0	1	;
	19	101	0.0	125.899000000000	20.983166666667	0.15	4.0	25.000000	0.0	1	;
	19	680	0.0	125.320000000000	20.886666666667	0.15	4.0	25.000000	0.0	1	;
	104	409	0.0	95.834576737612	15.972429456269	0.15	4.0	25.000000	0.0	1	;
	104	127	0.0	126.828000000000	21.138000000000	0.15	4.0	25.000000	0.0	1	;
	104	19	0.0	123.131000000000	20.521833333333	0.15	4.0	25.000000	0.0	1	;
	104	110	0.0	125.064000000000	20.844000000000	0.15	4.0	25.000000	0.0	1	;
	105	106	0.0	34.488000000000	5.748000000000	0.15	4.0	25.000000	0.0	1	;
	105	19	0.0	123.712000000000	20.618666666667	0.15	4.0	25.000000	0.0	1	;
	105	107	0.0	128.484000000000	21.414000000000	0.15	4.0	25.000000	0.0	1	;
	105	127	0.0	121.335000000000	20.222500000000	0.15	4.0	25.000000	0.0	1	;
	18	1203	0.0	164.998302345092	27.499717057515	0.15	4.0	25.000000	0.0	1	;
	18	680	0.0	124.651000000000	20.775166666667	0.15	4.0	10.000000	0.0	1	;
	18	1202	0.0	123.506000000000	20.584333333333	0.15	4.0	10.000000	0.0	1	;
	18	101	0.0	126.594000000000	21.099000000000	0.15	4.0	25.000000	0.0	1	;
	106	1108	0.0	95.211000000000	15.868500000000	0.15	4.0	25.000000	0.0	1	;
	106	1107	0.0	62.614000000000	10.435666666667	0.15	4.0	0.000000	0.0	1	;
	106	105	0.0	34.488000000000	5.748000000000	0.15	4.0	25.000000	0.0	1	;
	107	108	0.0	41.040000000000	6.840000000000	0.15	4.0	25.000000	0.0	1	;
	107	105	0.0	128.484000000000	21.414000000000	0.15	4.0	25.000000	0.0	1	;
	107	109	0.0	123.889000000000	20.648166666667	0.15	4.0	25.000000	0.0	1	;
	107	1109	0.0	38.989000000000	6.498166666667	0.15	4.0	25.000000	0.0	1	;
	108	107	0.0	41.040000000000	6.840000000000	0.15	4.0	25.000000	0.0	1	;
	108	20	0.0	43.148000000000	7.191333333333	0.15	4.0	25.000000	0.0	1	;
	109	806	0.0	102.928000000000	17.154666666667	0.15	4.0	25.000000	0.0	1	;
	109	332	0.0	127.130000000000	21.188333333333	0.15	4.0	25.000000	0.0	1	;
	109	107	0.0	123.889000000000	20.648166666667	0.15	4.0	25.000000	0.0	1	;
	109	128	0.0	62.702000000000	10.450333333333	0.15	4.0	25.000000	0.0	1	;
	110	104	0.0	125.064000000000	20.844000000000	0.15	4.0	25.000000	0.0	1	;
	110	101	0.0	122.466000000000	20.411000000000	0.15	4.0	25.000000	0.0	1	;
	110	95	0.0	128.119000000000	21.353166666667	0.15	4.0	25.000000	0.0	1	;
	110	17	0.0	124.695000000000	20.782500000000	0.15	4.0	25.000000	0.0	1	;
	111	112	0.0	171.181000000000	28.530166666667	0.15	4.0	25.000000	0.0	1	;
	111	113	0.0	77.967000000000	12.994500000000	0.15	4.0	25.000000	0.0	1	;
	111	114	0.0	47.170738779466	7.861789796578	0.15	4.0	25.000000	0.0	1	;
	111	716	0.0	128.181000000000	21.363500000000	0.15	4.0	25.000000	0.0	1	;
	112	1060	0.0	52.076450148503	8.679408358084	0.15	4.0	25.000000	0.0	1	;
	112	111	0.0	171.181000000000	28.530166666667	0.15	4.0	25.000000	0.0	1	;
	113	297	0.0	54.121000000000	9.020166666667	0.15	4.0	25.000000	0.0	1	;
	113	301	0.0	119.809000000000	19.968166666667	0.15	4.0	0.000000	0.0	1	;
	113	111	0.0	77.967000000000	12.994500000000	0.15	4.0	25.000000	0.0	1	;
	114	853	0.0	39.327994215977	6.554665702663	0.15	4.0	0.000000	0.0	1	;
	114	111	0.0	47.170738779466	7.861789796578	0.15	4.0	25.000000	0.0	1	;
	114	258	0.0	54.868814309870	9.144802384978	0.15	4.0	25.000000	0.0	1	;
	114	1050	0.0	37.979523728260	6.329920621377	0.15	4.0	0.000000	0.0	1	;
	115	116	0.0	71.231000000000	11.871833333333	0.15	4.0	0.000000	0.0	1	;
	115	117	0.0	44.252000000000	7.375333333333	0.15	4.0	0.000000	0.0	1	;
	115	118	0.0	76.594000000000	12.765666666667	0.15	4.0	0.000000	0.0	1	;
	116	115	0.0	71.231000000000	11.871833333333	0.15	4.0	0.000000	0.0	1	;
	116	22	0.0	51.250237231908	8.541706205318	0.15	4.0	0.000000	0.0	1	;
	117	115	0.0	44.252000000000	7.375333333333	0.15	4.0	0.000000	0.0	1	;
	117	754	0.0	28.739000000000	4.789833333333	0.15	4.0	0.000000	0.0	1	;
	118	1059	0.0	105.117658194851	17.519609699142	0.15	4.0	0.000000	0.0	1	;
	118	115	0.0	76.594000000000	12.765666666667	0.15	4.0	0.000000	0.0	1	;
	119	120	0.0	65.801902586441	10.966983764407	0.15	4.0	20.000000	0.0	1	;
	119	121	0.0	123.941634223051	20.656939037175	0.15	4.0	20.000000	0.0	1	;
	119	810	0.0	133.877938951201	22.312989825200	0.15	4.0	20.000000	0.0	1	;
	120	980	0.0	21.616000000000	3.602666666667	0.15	4.0	20.000000	0.0	1	;
	120	119	0.0	65.801902586441	10.966983764407	0.15	4.0	20.000000	0.0	1	;
	121	509	0.0	50.016565385117	8.336094230853	0.15	4.0	20.000000	0.0	1	;
	121	119	0.0	123.941634223051	20.656939037175	0.15	4.0	20.000000	0.0	1	;
	121	510	0.0	215.454934822825	35.909155803804	0.15	4.0	20.000000	0.0	1	;
	122	123	0.0	147.639822680366	24.606637113394	0.15	4.0	30.000000	0.0	1	;
	122	823	0.0	109.961411739705	18.326901956617	0.15	4.0	30.000000	0.0	1	;
	122	124	0.0	126.710062300319	21.118343716720	0.15	4.0	25.000000	0.0	1	;
	122	16	0.0	124.814172576677	20.802362096113	0.15	4.0	25.000000	0.0	1	;
	122	735	0.0	148.385409424057	24.730901570676	0.15	4.0	30.000000	0.0	1	;
	122	824	0.0	73.538676428306	12.256446071384	0.15	4.0	30.000000	0.0	1	;
	123	442	0.0	135.753465851869	22.625577641978	0.15	4.0	30.000000	0.0	1	;
	123	461	0.0	126.326598187043	21.054433031174	0.15	4.0	25.000000	0.0	1	;
	123	824	0.0	73.045570709113	12.174261784852	0.15	4.0	30.000000	0.0	1	;
	123	637	0.0	80.993851428236	13.498975238039	0.15	4.0	25.000000	0.0	1	;
	123	243	0.0	228.753900735616	38.125650122603	0.15	4.0	0.000000	0.0	1	;
	123	122	0.0	147.639822680366	24.606637113394	0.15	4.0	30.000000	0.0	1	;
	124	125	0.0	47.252302106632	7.875383684439	0.15	4.0	25.000000	0.0	1	;
	124	126	0.0	62.195534966565	10.365922494427	0.15	4.0	25.000000	0.0	1	;
	124	1037	0.0	28.673184485524	4.778864080921	0.15	4.0	20.000000	0.0	1	;
	124	122	0.0	126.710062300319	21.118343716720	0.15	4.0	25.000000	0.0	1	;
	125	124	0.0	47.252302106632	7.875383684439	0.15	4.0	25.000000	0.0	1	;
	125	634	0.0	81.712671479557	13.618778579926	0.15	4.0	25.000000	0.0	1	;
	126	686	0.0	67.590000000000	11.265000000000	0.15	4.0	25.000000	0.0	1	;
	126	124	0.0	62.195534966565	10.365922494427	0.15	4.0	25.000000	0.0	1	;
	127	105	0.0	121.335000000000	20.222500000000	0.15	4.0	25.000000	0.0	1	;
	127	128	0.0	63.976000000000	10.662666666667	0.15	4.0	25.000000	0.0	1	;
	127	104	0.0	126.828000000000	21.138000000000	0.15	4.0	25.000000	0.0	1	;
	127	1231	0.0	28.829853232437	4.804975538740	0.15	4.0	25.000000	0.0	1	;
	128	1078	0.0	26.808248982678	4.468041497113	0.15	4.0	0.000000	0.0	1	;
	128	109	0.0	62.702000000000	10.450333333333	0.15	4.0	25.000000	0.0	1	;
	128	127	0.0	63.976000000000	10.662666666667	0.15	4.0	25.000000	0.0	1	;
	129	130	0.0	72.597000000000	12.099500000000	0.15	4.0	25.000000	0.0	1	;
	129	131	0.0	107.082392760492	17.847065460082	0.15	4.0	25.000000	0.0	1	;
	129	132	0.0	41.010000000000	6.835000000000	0.15	4.0	25.000000	0.0	1	;
	129	133	0.0	124.729380431136	20.788230071856	0.15	4.0	25.000000	0.0	1	;
	130	683	0.0	33.652000000000	5.608666666667	0.15	4.0	25.000000	0.0	1	;
	130	129	0.0	72.597000000000	12.099500000000	0.15	4.0	25.000000	0.0	1	;
	130	368	0.0	115.543341555551	19.257223592592	0.15	4.0	0.000000	0.0	1	;
	131	129	0.0	107.082392760492	17.847065460082	0.15	4.0	25.000000	0.0	1	;
	131	720	0.0	79.591983222227	13.265330537038	0.15	4.0	20.000000	0.0	1	;
	131	721	0.0	73.134974985529	12.189162497588	0.15	4.0	20.000000	0.0	1	;
	131	803	0.0	80.909681251990	13.484946875332	0.15	4.0	0.000000	0.0	1	;
	131	905	0.0	573.757271230274	95.626211871712	0.15	4.0	0.000000	0.0	1	;
	132	867	0.0	35.581000000000	5.930166666667	0.15	4.0	25.000000	0.0	1	;
	132	129	0.0	41.010000000000	6.835000000000	0.15	4.0	25.000000	0.0	1	;
	133	367	0.0	136.471339443765	22.745223240627	0.15	4.0	30.000000	0.0	1	;
	133	129	0.0	124.729380431136	20.788230071856	0.15	4.0	25.000000	0.0	1	;
	133	821	0.0	73.026996695095	12.171166115849	0.15	4.0	30.000000	0.0	1	;
	133	719	0.0	139.317143202613	23.219523867102	0.15	4.0	30.000000	0.0	1	;
	133	1156	0.0	63.747076718917	10.624512786486	0.15	4.0	30.000000	0.0	1	;
	134	135	0.0	25.895367310374	4.315894551729	0.15	4.0	25.000000	0.0	1	;
	134	136	0.0	107.999346185926	17.999891030988	0.15	4.0	25.000000	0.0	1	;
	134	137	0.0	89.027805238752	14.837967539792	0.15	4.0	0.000000	0.0	1	;
	134	323	0.0	105.501241535475	17.583540255912	0.15	4.0	30.000000	0.0	1	;
	135	794	0.0	87.234000000000	14.539000000000	0.15	4.0	25.000000	0.0	1	;
	135	138	0.0	324.373000000000	54.062166666667	0.15	4.0	25.000000	0.0	1	;
	135	134	0.0	25.895367310374	4.315894551729	0.15	4.0	25.000000	0.0	1	;
	135	136	0.0	107.544814756490	17.924135792748	0.15	4.0	25.000000	0.0	1	;
	136	134	0.0	107.999346185926	17.999891030988	0.15	4.0	0.000000	0.0	1	;
	136	135	0.0	107.544814756490	17.924135792748	0.15	4.0	25.000000	0.0	1	;
	137	134	0.0	89.027805238752	14.837967539792	0.15	4.0	25.000000	0.0	1	;
	137	1005	0.0	53.752659111362	8.958776518560	0.15	4.0	20.000000	0.0	1	;
	137	296	0.0	123.446911008445	20.574485168074	0.15	4.0	0.000000	0.0	1	;
	137	794	0.0	24.267037635545	4.044506272591	0.15	4.0	25.000000	0.0	1	;
	138	139	0.0	56.137757101961	9.356292850327	0.15	4.0	25.000000	0.0	1	;
	138	140	0.0	214.249749956843	35.708291659474	0.15	4.0	25.000000	0.0	1	;
	138	141	0.0	90.870000000000	15.145000000000	0.15	4.0	25.000000	0.0	1	;
	138	135	0.0	324.373000000000	54.062166666667	0.15	4.0	25.000000	0.0	1	;
	138	666	0.0	130.644000000000	21.774000000000	0.15	4.0	0.000000	0.0	1	;
	139	138	0.0	56.137757101961	9.356292850327	0.15	4.0	25.000000	0.0	1	;
	139	142	0.0	39.533629866799	6.588938311133	0.15	4.0	25.000000	0.0	1	;
	139	1116	0.0	44.928297826676	7.488049637779	0.15	4.0	0.000000	0.0	1	;
	139	865	0.0	138.976000369290	23.162666728215	0.15	4.0	25.000000	0.0	1	;
	139	844	0.0	51.341276116824	8.556879352804	0.15	4.0	0.000000	0.0	1	;
	139	849	0.0	41.313924844192	6.885654140699	0.15	4.0	0.000000	0.0	1	;
	140	1254	0.0	102.042656089663	17.007109348277	0.15	4.0	25.000000	0.0	1	;
	140	871	0.0	44.402233451651	7.400372241942	0.15	4.0	25.000000	0.0	1	;
	140	666	0.0	74.757352079045	12.459558679841	0.15	4.0	25.000000	0.0	1	;
	140	840	0.0	41.494376700169	6.915729450028	0.15	4.0	25.000000	0.0	1	;
	140	839	0.0	338.802252748126	56.467042124688	0.15	4.0	0.000000	0.0	1	;
	140	841	0.0	123.716206049800	20.619367674967	0.15	4.0	0.000000	0.0	1	;
	140	138	0.0	214.249749956843	35.708291659474	0.15	4.0	25.000000	0.0	1	;
	140	1158	0.0	415.110686122533	69.185114353755	0.15	4.0	25.000000	0.0	1	;
	141	138	0.0	90.870000000000	15.145000000000	0.15	4.0	25.000000	0.0	1	;
	142	792	0.0	211.626691682730	35.271115280455	0.15	4.0	25.000000	0.0	1	;
	142	139	0.0	39.533629866799	6.588938311133	0.15	4.0	25.000000	0.0	1	;
	143	144	0.0	64.358000000000	10.726333333333	0.15	4.0	20.000000	0.0	1	;
	143	145	0.0	85.416000000000	14.236000000000	0.15	4.0	30.000000	0.0	1	;
	143	146	0.0	28.474000000000	4.745666666667	0.15	4.0	30.000000	0.0	1	;
	144	737	0.0	35.586061806417	5.931010301070	0.15	4.0	20.000000	0.0	1	;
	144	143	0.0	64.358000000000	10.726333333333	0.15	4.0	20.000000	0.0	1	;
	144	767	0.0	92.182162609138	15.363693768190	0.15	4.0	0.000000	0.0	1	;
	144	769	0.0	82.612364780385	13.768727463398	0.15	4.0	0.000000	0.0	1	;
	145	167	0.0	85.271615067871	14.211935844645	0.15	4.0	30.000000	0.0	1	;
	145	143	0.0	85.416000000000	14.236000000000	0.15	4.0	30.000000	0.0	1	;
	145	769	0.0	80.376694508586	13.396115751431	0.15	4.0	0.000000	0.0	1	;