<NUMBER OF ZONES> 30
<TOTAL OD FLOW> 4756.000000
<END OF METADATA>

Origin 1
2	:	2.000000;	3	:	8.000000;	4	:	3.000000;	5	:	1.000000;	6	:	4.000000;	7	:	3.000000;
8	:	1.000000;	9	:	1.000000;	10	:	0.000000;	11	:	0.000000;	12	:	0.000000;	13	:	0.000000;
14	:	3.000000;	15	:	2.000000;	16	:	1.000000;	17	:	2.000000;	18	:	1.000000;	19	:	1.000000;
20	:	1.000000;	21	:	0.000000;	22	:	0.000000;	23	:	0.000000;	24	:	1.000000;	25	:	0.000000;
26	:	2.000000;	27	:	0.000000;	28	:	2.000000;	29	:	1.000000;	30	:	0.000000;

Origin 2
1	:	3.000000;	3	:	5.000000;	4	:	5.000000;	5	:	5.000000;	6	:	11.000000;	7	:	7.000000;
8	:	8.000000;	9	:	5.000000;	10	:	2.000000;	11	:	1.000000;	12	:	3.000000;	13	:	5.000000;
14	:	3.000000;	15	:	0.000000;	16	:	1.000000;	17	:	2.000000;	18	:	2.000000;	19	:	8.000000;
20	:	9.000000;	21	:	1.000000;	22	:	1.000000;	23	:	0.000000;	24	:	0.000000;	25	:	0.000000;
26	:	8.000000;	27	:	1.000000;	28	:	1.000000;	29	:	1.000000;	30	:	0.000000;

Origin 3
1	:	8.000000;	2	:	8.000000;	4	:	12.000000;	5	:	3.000000;	6	:	21.000000;	7	:	24.000000;
8	:	12.000000;	9	:	2.000000;	10	:	2.000000;	11	:	1.000000;	12	:	1.000000;	13	:	2.000000;
14	:	0.000000;	15	:	0.000000;	16	:	1.000000;	17	:	2.000000;	18	:	1.000000;	19	:	4.000000;
20	:	7.000000;	21	:	1.000000;	22	:	0.000000;	23	:	0.000000;	24	:	0.000000;	25	:	3.000000;
26	:	5.000000;	27	:	1.000000;	28	:	5.000000;	29	:	1.000000;	30	:	0.000000;

Origin 4
1	:	2.000000;	2	:	4.000000;	3	:	10.000000;	5	:	10.000000;	6	:	19.000000;	7	:	7.000000;
8	:	14.000000;	9	:	2.000000;	10	:	4.000000;	11	:	2.000000;	12	:	3.000000;	13	:	5.000000;
14	:	8.000000;	15	:	3.000000;	16	:	2.000000;	17	:	5.000000;	18	:	6.000000;	19	:	8.000000;
20	:	8.000000;	21	:	2.000000;	22	:	1.000000;	23	:	1.000000;	24	:	1.000000;	25	:	0.000000;
26	:	5.000000;	27	:	3.000000;	28	:	3.000000;	29	:	6.000000;	30	:	1.000000;

Origin 5
1	:	0.000000;	2	:	4.000000;	3	:	5.000000;	4	:	10.000000;	6	:	20.000000;	7	:	15.000000;
8	:	13.000000;	9	:	1.000000;	10	:	1.000000;	11	:	2.000000;	12	:	3.000000;	13	:	40.000000;
14	:	13.000000;	15	:	6.000000;	16	:	4.000000;	17	:	4.000000;	18	:	8.000000;	19	:	8.000000;
20	:	7.000000;	21	:	2.000000;	22	:	1.000000;	23	:	0.000000;	24	:	0.000000;	25	:	0.000000;
26	:	3.000000;	27	:	1.000000;	28	:	2.000000;	29	:	1.000000;	30	:	0.000000;

Origin 6
1	:	4.000000;	2	:	11.000000;	3	:	19.000000;	4	:	26.000000;	5	:	18.000000;	7	:	37.000000;
8	:	55.000000;	9	:	5.000000;	10	:	7.000000;	11	:	24.000000;	12	:	5.000000;	13	:	39.000000;
14	:	35.000000;	15	:	13.000000;	16	:	15.000000;	17	:	14.000000;	18	:	23.000000;	19	:	15.000000;
20	:	10.000000;	21	:	1.000000;	22	:	3.000000;	23	:	1.000000;	24	:	1.000000;	25	:	1.000000;
26	:	5.000000;	27	:	2.000000;	28	:	4.000000;	29	:	5.000000;	30	:	3.000000;

Origin 7
1	:	2.000000;	2	:	5.000000;	3	:	24.000000;	4	:	9.000000;	5	:	16.000000;	6	:	29.000000;
8	:	37.000000;	9	:	2.000000;	10	:	5.000000;	11	:	3.000000;	12	:	2.000000;	13	:	7.000000;
14	:	9.000000;	15	:	4.000000;	16	:	2.000000;	17	:	2.000000;	18	:	8.000000;	19	:	5.000000;
20	:	11.000000;	21	:	1.000000;	22	:	1.000000;	23	:	0.000000;	24	:	0.000000;	25	:	0.000000;
26	:	3.000000;	27	:	1.000000;	28	:	4.000000;	29	:	1.000000;	30	:	2.000000;

Origin 8
1	:	2.000000;	2	:	8.000000;	3	:	12.000000;	4	:	12.000000;	5	:	12.000000;	6	:	42.000000;
7	:	35.000000;	9	:	25.000000;	10	:	38.000000;	11	:	29.000000;	12	:	14.000000;	13	:	14.000000;
14	:	21.000000;	15	:	4.000000;	16	:	8.000000;	17	:	5.000000;	18	:	11.000000;	19	:	14.000000;
20	:	21.000000;	21	:	4.000000;	22	:	2.000000;	23	:	1.000000;	24	:	1.000000;	25	:	1.000000;
26	:	7.000000;	27	:	4.000000;	28	:	6.000000;	29	:	2.000000;	30	:	0.000000;

Origin 9
1	:	1.000000;	2	:	4.000000;	3	:	2.000000;	4	:	2.000000;	5	:	0.000000;	6	:	3.000000;
7	:	3.000000;	8	:	19.000000;	10	:	7.000000;	11	:	12.000000;	12	:	2.000000;	13	:	4.000000;
14	:	4.000000;	15	:	1.000000;	16	:	6.000000;	17	:	1.000000;	18	:	2.000000;	19	:	2.000000;
20	:	1.000000;	21	:	1.000000;	22	:	0.000000;	23	:	0.000000;	24	:	0.000000;	25	:	0.000000;
26	:	1.000000;	27	:	0.000000;	28	:	1.000000;	29	:	0.000000;	30	:	0.000000;

Origin 10
1	:	0.000000;	2	:	2.000000;	3	:	2.000000;	4	:	2.000000;	5	:	3.000000;	6	:	7.000000;
7	:	3.000000;	8	:	35.000000;	9	:	8.000000;	11	:	35.000000;	12	:	23.000000;	13	:	14.000000;
14	:	18.000000;	15	:	3.000000;	16	:	4.000000;	17	:	1.000000;	18	:	4.000000;	19	:	3.000000;
20	:	5.000000;	21	:	2.000000;	22	:	4.000000;	23	:	1.000000;	24	:	0.000000;	25	:	1.000000;
26	:	7.000000;	27	:	3.000000;	28	:	2.000000;	29	:	0.000000;	30	:	0.000000;

Origin 11
1	:	0.000000;	2	:	3.000000;	3	:	2.000000;	4	:	3.000000;	5	:	1.000000;	6	:	12.000000;
7	:	0.000000;	8	:	36.000000;	9	:	9.000000;	10	:	37.000000;	12	:	39.000000;	13	:	23.000000;
14	:	24.000000;	15	:	2.000000;	16	:	3.000000;	17	:	3.000000;	18	:	4.000000;	19	:	3.000000;
20	:	5.000000;	21	:	3.000000;	22	:	5.000000;	23	:	2.000000;	24	:	0.000000;	25	:	0.000000;
26	:	4.000000;	27	:	1.000000;	28	:	1.000000;	29	:	0.000000;	30	:	0.000000;

Origin 12
1	:	0.000000;	2	:	5.000000;	3	:	0.000000;	4	:	3.000000;	5	:	3.000000;	6	:	9.000000;
7	:	2.000000;	8	:	16.000000;	9	:	4.000000;	10	:	27.000000;	11	:	50.000000;	13	:	31.000000;
14	:	25.000000;	15	:	5.000000;	16	:	1.000000;	17	:	5.000000;	18	:	4.000000;	19	:	6.000000;
20	:	3.000000;	21	:	2.000000;	22	:	2.000000;	23	:	6.000000;	24	:	1.000000;	25	:	0.000000;
26	:	9.000000;	27	:	1.000000;	28	:	1.000000;	29	:	0.000000;	30	:	0.000000;

Origin 13
1	:	0.000000;	2	:	1.000000;	3	:	1.000000;	4	:	3.000000;	5	:	18.000000;	6	:	22.000000;
7	:	4.000000;	8	:	15.000000;	9	:	2.000000;	10	:	13.000000;	11	:	26.000000;	12	:	32.000000;
14	:	29.000000;	15	:	18.000000;	16	:	11.000000;	17	:	7.000000;	18	:	26.000000;	19	:	8.000000;
20	:	5.000000;	21	:	4.000000;	22	:	6.000000;	23	:	12.000000;	24	:	1.000000;	25	:	1.000000;
26	:	4.000000;	27	:	1.000000;	28	:	1.000000;	29	:	0.000000;	30	:	0.000000;

Origin 14
1	:	2.000000;	2	:	3.000000;	3	:	1.000000;	4	:	5.000000;	5	:	10.000000;	6	:	24.000000;
7	:	8.000000;	8	:	27.000000;	9	:	4.000000;	10	:	23.000000;	11	:	24.000000;	12	:	22.000000;
13	:	40.000000;	15	:	6.000000;	16	:	5.000000;	17	:	3.000000;	18	:	12.000000;	19	:	9.000000;
20	:	9.000000;	21	:	7.000000;	22	:	17.000000;	23	:	4.000000;	24	:	3.000000;	25	:	3.000000;
26	:	15.000000;	27	:	4.000000;	28	:	6.000000;	29	:	1.000000;	30	:	1.000000;

Origin 15
1	:	1.000000;	2	:	0.000000;	3	:	1.000000;	4	:	3.000000;	5	:	4.000000;	6	:	11.000000;
7	:	5.000000;	8	:	5.000000;	9	:	2.000000;	10	:	5.000000;	11	:	4.000000;	12	:	4.000000;
13	:	26.000000;	14	:	12.000000;	16	:	2.000000;	17	:	1.000000;	18	:	3.000000;	19	:	7.000000;
20	:	4.000000;	21	:	1.000000;	22	:	1.000000;	23	:	1.000000;	24	:	2.000000;	25	:	0.000000;
26	:	5.000000;	27	:	1.000000;	28	:	3.000000;	29	:	0.000000;	30	:	0.000000;

Origin 16
1	:	0.000000;	2	:	1.000000;	3	:	1.000000;	4	:	3.000000;	5	:	1.000000;	6	:	6.000000;
7	:	1.000000;	8	:	9.000000;	9	:	4.000000;	10	:	3.000000;	11	:	2.000000;	12	:	7.000000;
13	:	16.000000;	14	:	9.000000;	15	:	1.000000;	17	:	2.000000;	18	:	4.000000;	19	:	5.000000;
20	:	5.000000;	21	:	2.000000;	22	:	0.000000;	23	:	0.000000;	24	:	0.000000;	25	:	0.000000;
26	:	4.000000;	27	:	1.000000;	28	:	2.000000;	29	:	1.000000;	30	:	0.000000;

Origin 17
1	:	0.000000;	2	:	3.000000;	3	:	2.000000;	4	:	3.000000;	5	:	5.000000;	6	:	9.000000;
7	:	4.000000;	8	:	7.000000;	9	:	2.000000;	10	:	2.000000;	11	:	2.000000;	12	:	3.000000;
13	:	16.000000;	14	:	10.000000;	15	:	1.000000;	16	:	4.000000;	18	:	4.000000;	19	:	10.000000;
20	:	5.000000;	21	:	1.000000;	22	:	2.000000;	23	:	0.000000;	24	:	0.000000;	25	:	0.000000;
26	:	5.000000;	27	:	1.000000;	28	:	1.000000;	29	:	1.000000;	30	:	0.000000;

Origin 18
1	:	1.000000;	2	:	3.000000;	3	:	2.000000;	4	:	4.000000;	5	:	7.000000;	6	:	18.000000;
7	:	6.000000;	8	:	15.000000;	9	:	3.000000;	10	:	5.000000;	11	:	8.000000;	12	:	6.000000;
13	:	33.000000;	14	:	18.000000;	15	:	2.000000;	16	:	4.000000;	17	:	4.000000;	19	:	13.000000;
20	:	15.000000;	21	:	5.000000;	22	:	5.000000;	23	:	1.000000;	24	:	0.000000;	25	:	3.000000;
26	:	14.000000;	27	:	3.000000;	28	:	4.000000;	29	:	9.000000;	30	:	0.000000;

Origin 19
1	:	2.000000;	2	:	6.000000;	3	:	7.000000;	4	:	8.000000;	5	:	7.000000;	6	:	13.000000;
7	:	4.000000;	8	:	20.000000;	9	:	4.000000;	10	:	7.000000;	11	:	4.000000;	12	:	7.000000;
13	:	11.000000;	14	:	18.000000;	15	:	3.000000;	16	:	5.000000;	17	:	7.000000;	18	:	11.000000;
20	:	15.000000;	21	:	12.000000;	22	:	3.000000;	23	:	1.000000;	24	:	3.000000;	25	:	3.000000;
26	:	27.000000;	27	:	3.000000;	28	:	11.000000;	29	:	5.000000;	30	:	2.000000;

Origin 20
1	:	1.000000;	2	:	9.000000;	3	:	15.000000;	4	:	10.000000;	5	:	10.000000;	6	:	16.000000;
7	:	11.000000;	8	:	24.000000;	9	:	3.000000;	10	:	6.000000;	11	:	8.000000;	12	:	8.000000;
13	:	5.000000;	14	:	16.000000;	15	:	2.000000;	16	:	5.000000;	17	:	8.000000;	18	:	15.000000;
19	:	16.000000;	21	:	7.000000;	22	:	6.000000;	23	:	7.000000;	24	:	1.000000;	25	:	9.000000;
26	:	41.000000;	27	:	10.000000;	28	:	14.000000;	29	:	13.000000;	30	:	3.000000;

Origin 21
1	:	0.000000;	2	:	1.000000;	3	:	1.000000;	4	:	4.000000;	5	:	1.000000;	6	:	2.000000;
7	:	1.000000;	8	:	6.000000;	9	:	0.000000;	10	:	4.000000;	11	:	1.000000;	12	:	3.000000;
13	:	3.000000;	14	:	8.000000;	15	:	2.000000;	16	:	1.000000;	17	:	2.000000;	18	:	3.000000;
19	:	7.000000;	20	:	7.000000;	22	:	4.000000;	23	:	1.000000;	24	:	0.000000;	25	:	2.000000;
26	:	15.000000;	27	:	5.000000;	28	:	8.000000;	29	:	2.000000;	30	:	1.000000;

Origin 22
1	:	1.000000;	2	:	0.000000;	3	:	2.000000;	4	:	2.000000;	5	:	1.000000;	6	:	2.000000;
7	:	1.000000;	8	:	4.000000;	9	:	0.000000;	10	:	4.000000;	11	:	4.000000;	12	:	3.000000;
13	:	7.000000;	14	:	18.000000;	15	:	1.000000;	16	:	1.000000;	17	:	1.000000;	18	:	2.000000;
19	:	5.000000;	20	:	5.000000;	21	:	3.000000;	23	:	2.000000;	24	:	1.000000;	25	:	3.000000;
26	:	16.000000;	27	:	7.000000;	28	:	9.000000;	29	:	2.000000;	30	:	0.000000;

Origin 23
1	:	0.000000;	2	:	0.000000;	3	:	0.000000;	4	:	0.000000;	5	:	0.000000;	6	:	1.000000;
7	:	0.000000;	8	:	1.000000;	9	:	0.000000;	10	:	2.000000;	11	:	2.000000;	12	:	9.000000;
13	:	11.000000;	14	:	5.000000;	15	:	0.000000;	16	:	0.000000;	17	:	0.000000;	18	:	0.000000;
19	:	1.000000;	20	:	6.000000;	21	:	2.000000;	22	:	3.000000;	24	:	4.000000;	25	:	1.000000;
26	:	5.000000;	27	:	0.000000;	28	:	0.000000;	29	:	0.000000;	30	:	0.000000;

Origin 24
1	:	0.000000;	2	:	0.000000;	3	:	0.000000;	4	:	0.000000;	5	:	0.000000;	6	:	0.000000;
7	:	0.000000;	8	:	1.000000;	9	:	0.000000;	10	:	1.000000;	11	:	0.000000;	12	:	1.000000;
13	:	3.000000;	14	:	3.000000;	15	:	2.000000;	16	:	0.000000;	17	:	0.000000;	18	:	0.000000;
19	:	3.000000;	20	:	1.000000;	21	:	1.000000;	22	:	1.000000;	23	:	2.000000;	25	:	1.000000;
26	:	5.000000;	27	:	1.000000;	28	:	1.000000;	29	:	1.000000;	30	:	0.000000;

Origin 25
1	:	0.000000;	2	:	1.000000;	3	:	5.000000;	4	:	1.000000;	5	:	0.000000;	6	:	0.000000;
7	:	0.000000;	8	:	1.000000;	9	:	0.000000;	10	:	1.000000;	11	:	0.000000;	12	:	0.000000;
13	:	1.000000;	14	:	1.000000;	15	:	0.000000;	16	:	0.000000;	17	:	0.000000;	18	:	0.000000;
19	:	1.000000;	20	:	2.000000;	21	:	1.000000;	22	:	1.000000;	23	:	1.000000;	24	:	2.000000;
26	:	13.000000;	27	:	3.000000;	28	:	3.000000;	29	:	0.000000;	30	:	0.000000;

Origin 26
1	:	2.000000;	2	:	8.000000;	3	:	6.000000;	4	:	5.000000;	5	:	3.000000;	6	:	6.000000;
7	:	2.000000;	8	:	12.000000;	9	:	1.000000;	10	:	6.000000;	11	:	3.000000;	12	:	8.000000;
13	:	3.000000;	14	:	9.000000;	15	:	1.000000;	16	:	1.000000;	17	:	3.000000;	18	:	7.000000;
19	:	15.000000;	20	:	30.000000;	21	:	15.000000;	22	:	10.000000;	23	:	3.000000;	24	:	5.000000;
25	:	9.000000;	27	:	34.000000;	28	:	20.000000;	29	:	3.000000;	30	:	1.000000;

Origin 27
1	:	0.000000;	2	:	3.000000;	3	:	1.000000;	4	:	6.000000;	5	:	1.000000;	6	:	4.000000;
7	:	0.000000;	8	:	2.000000;	9	:	0.000000;	10	:	1.000000;	11	:	1.000000;	12	:	1.000000;
13	:	2.000000;	14	:	4.000000;	15	:	0.000000;	16	:	1.000000;	17	:	1.000000;	18	:	3.000000;
19	:	3.000000;	20	:	11.000000;	21	:	6.000000;	22	:	4.000000;	23	:	0.000000;	24	:	0.000000;
25	:	2.000000;	26	:	35.000000;	28	:	10.000000;	29	:	2.000000;	30	:	0.000000;

Origin 28
1	:	3.000000;	2	:	3.000000;	3	:	10.000000;	4	:	3.000000;	5	:	3.000000;	6	:	6.000000;
7	:	5.000000;	8	:	6.000000;	9	:	0.000000;	10	:	1.000000;	11	:	1.000000;	12	:	4.000000;
13	:	2.000000;	14	:	7.000000;	15	:	1.000000;	16	:	1.000000;	17	:	2.000000;	18	:	6.000000;
19	:	10.000000;	20	:	17.000000;	21	:	6.000000;	22	:	5.000000;	23	:	1.000000;	24	:	1.000000;
25	:	3.000000;	26	:	22.000000;	27	:	9.000000;	29	:	7.000000;	30	:	1.000000;

Origin 29
1	:	1.000000;	2	:	2.000000;	3	:	3.000000;	4	:	6.000000;	5	:	3.000000;	6	:	6.000000;
7	:	5.000000;	8	:	4.000000;	9	:	0.000000;	10	:	2.000000;	11	:	0.000000;	12	:	0.000000;
13	:	0.000000;	14	:	1.000000;	15	:	0.000000;	16	:	0.000000;	17	:	2.000000;	18	:	5.000000;
19	:	6.000000;	20	:	12.000000;	21	:	2.000000;	22	:	0.000000;	23	:	0.000000;	24	:	0.000000;
25	:	0.000000;	26	:	4.000000;	27	:	1.000000;	28	:	6.000000;	30	:	2.000000;

Origin 30
1	:	0.000000;	2	:	0.000000;	3	:	0.000000;	4	:	1.000000;	5	:	1.000000;	6	:	2.000000;
7	:	0.000000;	8	:	1.000000;	9	:	0.000000;	10	:	0.000000;	11	:	0.000000;	12	:	0.000000;
13	:	0.000000;	14	:	2.000000;	15	:	0.000000;	16	:	0.000000;	17	:	0.000000;	18	:	0.000000;
19	:	1.000000;	20	:	2.000000;	21	:	0.000000;	22	:	0.000000;	23	:	0.000000;	24	:	0.000000;
25	:	0.000000;	26	:	2.000000;	27	:	0.000000;	28	:	0.000000;	29	:	2.000000;

